[General]
# sqsqtest
network = Network

**.ospf.ospfConfig = xmldoc("sqsqASConfig.xml")

warmup-period = 20s
sim-time-limit = 130.001s

**.ospfRouter_*_*.numApps = 2
**.app[0].typename = "UdpBasicApp"
**.app[0].destPort = 1234
**.app[0].messageLength = 32 bytes
**.app[0].sendInterval = 0.1s
**.app[0].startTime = 20s
**.app[0].stopTime = 120s
**.app[1].typename = "UdpBasicApp"
**.app[1].localPort = 1234
**.app[1].destPort = 1111
**.app[1].messageLength = 32 bytes
**.app[1].sendInterval = 0.1s

**.scalar-recording = false # shutdown the recording, only focus on the data we need
**.vector-recording = false

#**.result-recording-modes = default
#**.app[0].eed.result-recording-modes = vector


**.arp.cacheTimeout = 10s

#**.ospfRouter_*_*.app[0].destAddressesesses = "ospfRouter_4_4"
#**.ospfRouter_3_1.app[0].destAddressesesses = "ospfRouter_4_2"
#**.ospfRouter_2_1.app[0].destAddressesesses = "ospfRouter_3_2"

#[Config fail0]
#**.ospfRouter_11_1.app[0].destAddressesesses = "ospfRouter_4_4"  # manhattan dis = 7
#**.scenarioManager.script = xmldoc("sqsqScenario0.000.xml")

# ------------------------------------------------------------
# fail02 means in a single second, 
# the expectation of (num_of_disconnected_link / num_of_total_link) is 02%

[Config fail10_test1]
**.scenarioManager.script = xmldoc("./scenarios/test1/sqsqScenario0.100.xml")
**.app[0].sendInterval = 0.01s
**.app[0].messageLength = 1024 bytes
**.ospfRouter_9_3.app[0].destAddresses = "ospfRouter_5_5"
[Config fail10_test2]
**.scenarioManager.script = xmldoc("./scenarios/test2/sqsqScenario0.100.xml")
**.app[0].sendInterval = 0.01s
**.app[0].messageLength = 1024 bytes
**.ospfRouter_9_3.app[0].destAddresses = "ospfRouter_5_5"
[Config fail10_test3]
**.scenarioManager.script = xmldoc("./scenarios/test3/sqsqScenario0.100.xml")
**.app[0].sendInterval = 0.01s
**.app[0].messageLength = 1024 bytes
**.ospfRouter_9_3.app[0].destAddresses = "ospfRouter_5_5"
[Config fail10_test4]
**.scenarioManager.script = xmldoc("./scenarios/test4/sqsqScenario0.100.xml")
**.app[0].sendInterval = 0.01s
**.app[0].messageLength = 1024 bytes
**.ospfRouter_9_3.app[0].destAddresses = "ospfRouter_5_5"
[Config fail10_test5]
**.scenarioManager.script = xmldoc("./scenarios/test5/sqsqScenario0.100.xml")
**.app[0].sendInterval = 0.01s
**.app[0].messageLength = 1024 bytes
**.ospfRouter_9_3.app[0].destAddresses = "ospfRouter_5_5"
[Config fail10_test6]
**.scenarioManager.script = xmldoc("./scenarios/test6/sqsqScenario0.100.xml")
**.app[0].sendInterval = 0.01s
**.app[0].messageLength = 1024 bytes
**.ospfRouter_9_3.app[0].destAddresses = "ospfRouter_5_5"
[Config fail10_test7]
**.scenarioManager.script = xmldoc("./scenarios/test7/sqsqScenario0.100.xml")
**.app[0].sendInterval = 0.01s
**.app[0].messageLength = 1024 bytes
**.ospfRouter_9_3.app[0].destAddresses = "ospfRouter_5_5"
[Config fail10_test8]
**.scenarioManager.script = xmldoc("./scenarios/test8/sqsqScenario0.100.xml")
**.app[0].sendInterval = 0.01s
**.app[0].messageLength = 1024 bytes
**.ospfRouter_9_3.app[0].destAddresses = "ospfRouter_5_5"
[Config fail10_test9]
**.scenarioManager.script = xmldoc("./scenarios/test9/sqsqScenario0.100.xml")
**.app[0].sendInterval = 0.01s
**.app[0].messageLength = 1024 bytes
**.ospfRouter_9_3.app[0].destAddresses = "ospfRouter_5_5"
[Config fail10_test10]
**.scenarioManager.script = xmldoc("./scenarios/test10/sqsqScenario0.100.xml")
**.app[0].sendInterval = 0.01s
**.app[0].messageLength = 1024 bytes
**.ospfRouter_9_3.app[0].destAddresses = "ospfRouter_5_5"
[Config fail10_test11]
**.scenarioManager.script = xmldoc("./scenarios/test11/sqsqScenario0.100.xml")
**.app[0].sendInterval = 0.01s
**.app[0].messageLength = 1024 bytes
**.ospfRouter_9_3.app[0].destAddresses = "ospfRouter_5_5"
[Config fail10_test12]
**.scenarioManager.script = xmldoc("./scenarios/test12/sqsqScenario0.100.xml")
**.app[0].sendInterval = 0.01s
**.app[0].messageLength = 1024 bytes
**.ospfRouter_9_3.app[0].destAddresses = "ospfRouter_5_5"
[Config fail10_test13]
**.scenarioManager.script = xmldoc("./scenarios/test13/sqsqScenario0.100.xml")
**.app[0].sendInterval = 0.01s
**.app[0].messageLength = 1024 bytes
**.ospfRouter_9_3.app[0].destAddresses = "ospfRouter_5_5"
[Config fail10_test14]
**.scenarioManager.script = xmldoc("./scenarios/test14/sqsqScenario0.100.xml")
**.app[0].sendInterval = 0.01s
**.app[0].messageLength = 1024 bytes
**.ospfRouter_9_3.app[0].destAddresses = "ospfRouter_5_5"
[Config fail10_test15]
**.scenarioManager.script = xmldoc("./scenarios/test15/sqsqScenario0.100.xml")
**.app[0].sendInterval = 0.01s
**.app[0].messageLength = 1024 bytes
**.ospfRouter_9_3.app[0].destAddresses = "ospfRouter_5_5"
[Config fail10_test16]
**.scenarioManager.script = xmldoc("./scenarios/test16/sqsqScenario0.100.xml")
**.app[0].sendInterval = 0.01s
**.app[0].messageLength = 1024 bytes
**.ospfRouter_9_3.app[0].destAddresses = "ospfRouter_5_5"
[Config fail10_test17]
**.scenarioManager.script = xmldoc("./scenarios/test17/sqsqScenario0.100.xml")
**.app[0].sendInterval = 0.01s
**.app[0].messageLength = 1024 bytes
**.ospfRouter_9_3.app[0].destAddresses = "ospfRouter_5_5"
[Config fail10_test18]
**.scenarioManager.script = xmldoc("./scenarios/test18/sqsqScenario0.100.xml")
**.app[0].sendInterval = 0.01s
**.app[0].messageLength = 1024 bytes
**.ospfRouter_9_3.app[0].destAddresses = "ospfRouter_5_5"
[Config fail10_test19]
**.scenarioManager.script = xmldoc("./scenarios/test19/sqsqScenario0.100.xml")
**.app[0].sendInterval = 0.01s
**.app[0].messageLength = 1024 bytes
**.ospfRouter_9_3.app[0].destAddresses = "ospfRouter_5_5"
[Config fail10_test20]
**.scenarioManager.script = xmldoc("./scenarios/test20/sqsqScenario0.100.xml")
**.app[0].sendInterval = 0.01s
**.app[0].messageLength = 1024 bytes
**.ospfRouter_9_3.app[0].destAddresses = "ospfRouter_5_5"
[Config fail10_test21]
**.scenarioManager.script = xmldoc("./scenarios/test21/sqsqScenario0.100.xml")
**.app[0].sendInterval = 0.01s
**.app[0].messageLength = 1024 bytes
**.ospfRouter_9_3.app[0].destAddresses = "ospfRouter_5_5"
[Config fail10_test22]
**.scenarioManager.script = xmldoc("./scenarios/test22/sqsqScenario0.100.xml")
**.app[0].sendInterval = 0.01s
**.app[0].messageLength = 1024 bytes
**.ospfRouter_9_3.app[0].destAddresses = "ospfRouter_5_5"
[Config fail10_test23]
**.scenarioManager.script = xmldoc("./scenarios/test23/sqsqScenario0.100.xml")
**.app[0].sendInterval = 0.01s
**.app[0].messageLength = 1024 bytes
**.ospfRouter_9_3.app[0].destAddresses = "ospfRouter_5_5"
[Config fail10_test24]
**.scenarioManager.script = xmldoc("./scenarios/test24/sqsqScenario0.100.xml")
**.app[0].sendInterval = 0.01s
**.app[0].messageLength = 1024 bytes
**.ospfRouter_9_3.app[0].destAddresses = "ospfRouter_5_5"
[Config fail10_test25]
**.scenarioManager.script = xmldoc("./scenarios/test25/sqsqScenario0.100.xml")
**.app[0].sendInterval = 0.01s
**.app[0].messageLength = 1024 bytes
**.ospfRouter_9_3.app[0].destAddresses = "ospfRouter_5_5"
[Config fail10_test26]
**.scenarioManager.script = xmldoc("./scenarios/test26/sqsqScenario0.100.xml")
**.app[0].sendInterval = 0.01s
**.app[0].messageLength = 1024 bytes
**.ospfRouter_9_3.app[0].destAddresses = "ospfRouter_5_5"
[Config fail10_test27]
**.scenarioManager.script = xmldoc("./scenarios/test27/sqsqScenario0.100.xml")
**.app[0].sendInterval = 0.01s
**.app[0].messageLength = 1024 bytes
**.ospfRouter_9_3.app[0].destAddresses = "ospfRouter_5_5"
[Config fail10_test28]
**.scenarioManager.script = xmldoc("./scenarios/test28/sqsqScenario0.100.xml")
**.app[0].sendInterval = 0.01s
**.app[0].messageLength = 1024 bytes
**.ospfRouter_9_3.app[0].destAddresses = "ospfRouter_5_5"
[Config fail10_test29]
**.scenarioManager.script = xmldoc("./scenarios/test29/sqsqScenario0.100.xml")
**.app[0].sendInterval = 0.01s
**.app[0].messageLength = 1024 bytes
**.ospfRouter_9_3.app[0].destAddresses = "ospfRouter_5_5"
[Config fail10_test30]
**.scenarioManager.script = xmldoc("./scenarios/test30/sqsqScenario0.100.xml")
**.app[0].sendInterval = 0.01s
**.app[0].messageLength = 1024 bytes
**.ospfRouter_9_3.app[0].destAddresses = "ospfRouter_5_5"
[Config fail10_test31]
**.scenarioManager.script = xmldoc("./scenarios/test31/sqsqScenario0.100.xml")
**.app[0].sendInterval = 0.01s
**.app[0].messageLength = 1024 bytes
**.ospfRouter_9_3.app[0].destAddresses = "ospfRouter_5_5"
[Config fail10_test32]
**.scenarioManager.script = xmldoc("./scenarios/test32/sqsqScenario0.100.xml")
**.app[0].sendInterval = 0.01s
**.app[0].messageLength = 1024 bytes
**.ospfRouter_9_3.app[0].destAddresses = "ospfRouter_5_5"
[Config fail10_test33]
**.scenarioManager.script = xmldoc("./scenarios/test33/sqsqScenario0.100.xml")
**.app[0].sendInterval = 0.01s
**.app[0].messageLength = 1024 bytes
**.ospfRouter_9_3.app[0].destAddresses = "ospfRouter_5_5"
[Config fail10_test34]
**.scenarioManager.script = xmldoc("./scenarios/test34/sqsqScenario0.100.xml")
**.app[0].sendInterval = 0.01s
**.app[0].messageLength = 1024 bytes
**.ospfRouter_9_3.app[0].destAddresses = "ospfRouter_5_5"
[Config fail10_test35]
**.scenarioManager.script = xmldoc("./scenarios/test35/sqsqScenario0.100.xml")
**.app[0].sendInterval = 0.01s
**.app[0].messageLength = 1024 bytes
**.ospfRouter_9_3.app[0].destAddresses = "ospfRouter_5_5"
[Config fail10_test36]
**.scenarioManager.script = xmldoc("./scenarios/test36/sqsqScenario0.100.xml")
**.app[0].sendInterval = 0.01s
**.app[0].messageLength = 1024 bytes
**.ospfRouter_9_3.app[0].destAddresses = "ospfRouter_5_5"
[Config fail10_test37]
**.scenarioManager.script = xmldoc("./scenarios/test37/sqsqScenario0.100.xml")
**.app[0].sendInterval = 0.01s
**.app[0].messageLength = 1024 bytes
**.ospfRouter_9_3.app[0].destAddresses = "ospfRouter_5_5"
[Config fail10_test38]
**.scenarioManager.script = xmldoc("./scenarios/test38/sqsqScenario0.100.xml")
**.app[0].sendInterval = 0.01s
**.app[0].messageLength = 1024 bytes
**.ospfRouter_9_3.app[0].destAddresses = "ospfRouter_5_5"
[Config fail10_test39]
**.scenarioManager.script = xmldoc("./scenarios/test39/sqsqScenario0.100.xml")
**.app[0].sendInterval = 0.01s
**.app[0].messageLength = 1024 bytes
**.ospfRouter_9_3.app[0].destAddresses = "ospfRouter_5_5"
[Config fail10_test40]
**.scenarioManager.script = xmldoc("./scenarios/test40/sqsqScenario0.100.xml")
**.app[0].sendInterval = 0.01s
**.app[0].messageLength = 1024 bytes
**.ospfRouter_9_3.app[0].destAddresses = "ospfRouter_5_5"
[Config fail10_test41]
**.scenarioManager.script = xmldoc("./scenarios/test41/sqsqScenario0.100.xml")
**.app[0].sendInterval = 0.01s
**.app[0].messageLength = 1024 bytes
**.ospfRouter_9_3.app[0].destAddresses = "ospfRouter_5_5"
[Config fail10_test42]
**.scenarioManager.script = xmldoc("./scenarios/test42/sqsqScenario0.100.xml")
**.app[0].sendInterval = 0.01s
**.app[0].messageLength = 1024 bytes
**.ospfRouter_9_3.app[0].destAddresses = "ospfRouter_5_5"
[Config fail10_test43]
**.scenarioManager.script = xmldoc("./scenarios/test43/sqsqScenario0.100.xml")
**.app[0].sendInterval = 0.01s
**.app[0].messageLength = 1024 bytes
**.ospfRouter_9_3.app[0].destAddresses = "ospfRouter_5_5"
[Config fail10_test44]
**.scenarioManager.script = xmldoc("./scenarios/test44/sqsqScenario0.100.xml")
**.app[0].sendInterval = 0.01s
**.app[0].messageLength = 1024 bytes
**.ospfRouter_9_3.app[0].destAddresses = "ospfRouter_5_5"
[Config fail10_test45]
**.scenarioManager.script = xmldoc("./scenarios/test45/sqsqScenario0.100.xml")
**.app[0].sendInterval = 0.01s
**.app[0].messageLength = 1024 bytes
**.ospfRouter_9_3.app[0].destAddresses = "ospfRouter_5_5"
[Config fail10_test46]
**.scenarioManager.script = xmldoc("./scenarios/test46/sqsqScenario0.100.xml")
**.app[0].sendInterval = 0.01s
**.app[0].messageLength = 1024 bytes
**.ospfRouter_9_3.app[0].destAddresses = "ospfRouter_5_5"
[Config fail10_test47]
**.scenarioManager.script = xmldoc("./scenarios/test47/sqsqScenario0.100.xml")
**.app[0].sendInterval = 0.01s
**.app[0].messageLength = 1024 bytes
**.ospfRouter_9_3.app[0].destAddresses = "ospfRouter_5_5"
[Config fail10_test48]
**.scenarioManager.script = xmldoc("./scenarios/test48/sqsqScenario0.100.xml")
**.app[0].sendInterval = 0.01s
**.app[0].messageLength = 1024 bytes
**.ospfRouter_9_3.app[0].destAddresses = "ospfRouter_5_5"
[Config fail10_test49]
**.scenarioManager.script = xmldoc("./scenarios/test49/sqsqScenario0.100.xml")
**.app[0].sendInterval = 0.01s
**.app[0].messageLength = 1024 bytes
**.ospfRouter_9_3.app[0].destAddresses = "ospfRouter_5_5"
[Config fail10_test50]
**.scenarioManager.script = xmldoc("./scenarios/test50/sqsqScenario0.100.xml")
**.app[0].sendInterval = 0.01s
**.app[0].messageLength = 1024 bytes
**.ospfRouter_9_3.app[0].destAddresses = "ospfRouter_5_5"






# [Config fail10_test1]
# **.scenarioManager.script = xmldoc("./scenarios/test1/sqsqScenario0.100.xml")
# **.app[0].sendInterval = 0.002s
# **.app[0].messageLength = 1024 bytes
# **.ospfRouter_6_5.app[0].destAddresses = "ospfRouter_5_5"
# **.ospfRouter_7_5.app[0].destAddresses = "ospfRouter_5_5"
# **.ospfRouter_8_5.app[0].destAddresses = "ospfRouter_5_5"
# **.ospfRouter_9_5.app[0].destAddresses = "ospfRouter_5_5"
# [Config fail10_test2]
# **.scenarioManager.script = xmldoc("./scenarios/test2/sqsqScenario0.100.xml")
# **.app[0].sendInterval = 0.002s
# **.app[0].messageLength = 1024 bytes
# **.ospfRouter_6_5.app[0].destAddresses = "ospfRouter_5_5"
# **.ospfRouter_7_5.app[0].destAddresses = "ospfRouter_5_5"
# **.ospfRouter_8_5.app[0].destAddresses = "ospfRouter_5_5"
# **.ospfRouter_9_5.app[0].destAddresses = "ospfRouter_5_5"
# [Config fail10_test3]
# **.scenarioManager.script = xmldoc("./scenarios/test3/sqsqScenario0.100.xml")
# **.app[0].sendInterval = 0.002s
# **.app[0].messageLength = 1024 bytes
# **.ospfRouter_6_5.app[0].destAddresses = "ospfRouter_5_5"
# **.ospfRouter_7_5.app[0].destAddresses = "ospfRouter_5_5"
# **.ospfRouter_8_5.app[0].destAddresses = "ospfRouter_5_5"
# **.ospfRouter_9_5.app[0].destAddresses = "ospfRouter_5_5"
# [Config fail10_test4]
# **.scenarioManager.script = xmldoc("./scenarios/test4/sqsqScenario0.100.xml")
# **.app[0].sendInterval = 0.002s
# **.app[0].messageLength = 1024 bytes
# **.ospfRouter_6_5.app[0].destAddresses = "ospfRouter_5_5"
# **.ospfRouter_7_5.app[0].destAddresses = "ospfRouter_5_5"
# **.ospfRouter_8_5.app[0].destAddresses = "ospfRouter_5_5"
# **.ospfRouter_9_5.app[0].destAddresses = "ospfRouter_5_5"
# [Config fail10_test5]
# **.scenarioManager.script = xmldoc("./scenarios/test5/sqsqScenario0.100.xml")
# **.app[0].sendInterval = 0.002s
# **.app[0].messageLength = 1024 bytes
# **.ospfRouter_6_5.app[0].destAddresses = "ospfRouter_5_5"
# **.ospfRouter_7_5.app[0].destAddresses = "ospfRouter_5_5"
# **.ospfRouter_8_5.app[0].destAddresses = "ospfRouter_5_5"
# **.ospfRouter_9_5.app[0].destAddresses = "ospfRouter_5_5"
# [Config fail10_test6]
# **.scenarioManager.script = xmldoc("./scenarios/test6/sqsqScenario0.100.xml")
# **.app[0].sendInterval = 0.002s
# **.app[0].messageLength = 1024 bytes
# **.ospfRouter_6_5.app[0].destAddresses = "ospfRouter_5_5"
# **.ospfRouter_7_5.app[0].destAddresses = "ospfRouter_5_5"
# **.ospfRouter_8_5.app[0].destAddresses = "ospfRouter_5_5"
# **.ospfRouter_9_5.app[0].destAddresses = "ospfRouter_5_5"
# [Config fail10_test7]
# **.scenarioManager.script = xmldoc("./scenarios/test7/sqsqScenario0.100.xml")
# **.app[0].sendInterval = 0.002s
# **.app[0].messageLength = 1024 bytes
# **.ospfRouter_6_5.app[0].destAddresses = "ospfRouter_5_5"
# **.ospfRouter_7_5.app[0].destAddresses = "ospfRouter_5_5"
# **.ospfRouter_8_5.app[0].destAddresses = "ospfRouter_5_5"
# **.ospfRouter_9_5.app[0].destAddresses = "ospfRouter_5_5"
# [Config fail10_test8]
# **.scenarioManager.script = xmldoc("./scenarios/test8/sqsqScenario0.100.xml")
# **.app[0].sendInterval = 0.002s
# **.app[0].messageLength = 1024 bytes
# **.ospfRouter_6_5.app[0].destAddresses = "ospfRouter_5_5"
# **.ospfRouter_7_5.app[0].destAddresses = "ospfRouter_5_5"
# **.ospfRouter_8_5.app[0].destAddresses = "ospfRouter_5_5"
# **.ospfRouter_9_5.app[0].destAddresses = "ospfRouter_5_5"
# [Config fail10_test9]
# **.scenarioManager.script = xmldoc("./scenarios/test9/sqsqScenario0.100.xml")
# **.app[0].sendInterval = 0.002s
# **.app[0].messageLength = 1024 bytes
# **.ospfRouter_6_5.app[0].destAddresses = "ospfRouter_5_5"
# **.ospfRouter_7_5.app[0].destAddresses = "ospfRouter_5_5"
# **.ospfRouter_8_5.app[0].destAddresses = "ospfRouter_5_5"
# **.ospfRouter_9_5.app[0].destAddresses = "ospfRouter_5_5"
# [Config fail10_test10]
# **.scenarioManager.script = xmldoc("./scenarios/test10/sqsqScenario0.100.xml")
# **.app[0].sendInterval = 0.002s
# **.app[0].messageLength = 1024 bytes
# **.ospfRouter_6_5.app[0].destAddresses = "ospfRouter_5_5"
# **.ospfRouter_7_5.app[0].destAddresses = "ospfRouter_5_5"
# **.ospfRouter_8_5.app[0].destAddresses = "ospfRouter_5_5"
# **.ospfRouter_9_5.app[0].destAddresses = "ospfRouter_5_5"
# [Config fail10_test11]
# **.scenarioManager.script = xmldoc("./scenarios/test11/sqsqScenario0.100.xml")
# **.app[0].sendInterval = 0.002s
# **.app[0].messageLength = 1024 bytes
# **.ospfRouter_6_5.app[0].destAddresses = "ospfRouter_5_5"
# **.ospfRouter_7_5.app[0].destAddresses = "ospfRouter_5_5"
# **.ospfRouter_8_5.app[0].destAddresses = "ospfRouter_5_5"
# **.ospfRouter_9_5.app[0].destAddresses = "ospfRouter_5_5"
# [Config fail10_test12]
# **.scenarioManager.script = xmldoc("./scenarios/test12/sqsqScenario0.100.xml")
# **.app[0].sendInterval = 0.002s
# **.app[0].messageLength = 1024 bytes
# **.ospfRouter_6_5.app[0].destAddresses = "ospfRouter_5_5"
# **.ospfRouter_7_5.app[0].destAddresses = "ospfRouter_5_5"
# **.ospfRouter_8_5.app[0].destAddresses = "ospfRouter_5_5"
# **.ospfRouter_9_5.app[0].destAddresses = "ospfRouter_5_5"
# [Config fail10_test13]
# **.scenarioManager.script = xmldoc("./scenarios/test13/sqsqScenario0.100.xml")
# **.app[0].sendInterval = 0.002s
# **.app[0].messageLength = 1024 bytes
# **.ospfRouter_6_5.app[0].destAddresses = "ospfRouter_5_5"
# **.ospfRouter_7_5.app[0].destAddresses = "ospfRouter_5_5"
# **.ospfRouter_8_5.app[0].destAddresses = "ospfRouter_5_5"
# **.ospfRouter_9_5.app[0].destAddresses = "ospfRouter_5_5"
# [Config fail10_test14]
# **.scenarioManager.script = xmldoc("./scenarios/test14/sqsqScenario0.100.xml")
# **.app[0].sendInterval = 0.002s
# **.app[0].messageLength = 1024 bytes
# **.ospfRouter_6_5.app[0].destAddresses = "ospfRouter_5_5"
# **.ospfRouter_7_5.app[0].destAddresses = "ospfRouter_5_5"
# **.ospfRouter_8_5.app[0].destAddresses = "ospfRouter_5_5"
# **.ospfRouter_9_5.app[0].destAddresses = "ospfRouter_5_5"
# [Config fail10_test15]
# **.scenarioManager.script = xmldoc("./scenarios/test15/sqsqScenario0.100.xml")
# **.app[0].sendInterval = 0.002s
# **.app[0].messageLength = 1024 bytes
# **.ospfRouter_6_5.app[0].destAddresses = "ospfRouter_5_5"
# **.ospfRouter_7_5.app[0].destAddresses = "ospfRouter_5_5"
# **.ospfRouter_8_5.app[0].destAddresses = "ospfRouter_5_5"
# **.ospfRouter_9_5.app[0].destAddresses = "ospfRouter_5_5"
# [Config fail10_test16]
# **.scenarioManager.script = xmldoc("./scenarios/test16/sqsqScenario0.100.xml")
# **.app[0].sendInterval = 0.002s
# **.app[0].messageLength = 1024 bytes
# **.ospfRouter_6_5.app[0].destAddresses = "ospfRouter_5_5"
# **.ospfRouter_7_5.app[0].destAddresses = "ospfRouter_5_5"
# **.ospfRouter_8_5.app[0].destAddresses = "ospfRouter_5_5"
# **.ospfRouter_9_5.app[0].destAddresses = "ospfRouter_5_5"
# [Config fail10_test17]
# **.scenarioManager.script = xmldoc("./scenarios/test17/sqsqScenario0.100.xml")
# **.app[0].sendInterval = 0.002s
# **.app[0].messageLength = 1024 bytes
# **.ospfRouter_6_5.app[0].destAddresses = "ospfRouter_5_5"
# **.ospfRouter_7_5.app[0].destAddresses = "ospfRouter_5_5"
# **.ospfRouter_8_5.app[0].destAddresses = "ospfRouter_5_5"
# **.ospfRouter_9_5.app[0].destAddresses = "ospfRouter_5_5"
# [Config fail10_test18]
# **.scenarioManager.script = xmldoc("./scenarios/test18/sqsqScenario0.100.xml")
# **.app[0].sendInterval = 0.002s
# **.app[0].messageLength = 1024 bytes
# **.ospfRouter_6_5.app[0].destAddresses = "ospfRouter_5_5"
# **.ospfRouter_7_5.app[0].destAddresses = "ospfRouter_5_5"
# **.ospfRouter_8_5.app[0].destAddresses = "ospfRouter_5_5"
# **.ospfRouter_9_5.app[0].destAddresses = "ospfRouter_5_5"
# [Config fail10_test19]
# **.scenarioManager.script = xmldoc("./scenarios/test19/sqsqScenario0.100.xml")
# **.app[0].sendInterval = 0.002s
# **.app[0].messageLength = 1024 bytes
# **.ospfRouter_6_5.app[0].destAddresses = "ospfRouter_5_5"
# **.ospfRouter_7_5.app[0].destAddresses = "ospfRouter_5_5"
# **.ospfRouter_8_5.app[0].destAddresses = "ospfRouter_5_5"
# **.ospfRouter_9_5.app[0].destAddresses = "ospfRouter_5_5"
# [Config fail10_test20]
# **.scenarioManager.script = xmldoc("./scenarios/test20/sqsqScenario0.100.xml")
# **.app[0].sendInterval = 0.002s
# **.app[0].messageLength = 1024 bytes
# **.ospfRouter_6_5.app[0].destAddresses = "ospfRouter_5_5"
# **.ospfRouter_7_5.app[0].destAddresses = "ospfRouter_5_5"
# **.ospfRouter_8_5.app[0].destAddresses = "ospfRouter_5_5"
# **.ospfRouter_9_5.app[0].destAddresses = "ospfRouter_5_5"
# [Config fail10_test21]
# **.scenarioManager.script = xmldoc("./scenarios/test21/sqsqScenario0.100.xml")
# **.app[0].sendInterval = 0.002s
# **.app[0].messageLength = 1024 bytes
# **.ospfRouter_6_5.app[0].destAddresses = "ospfRouter_5_5"
# **.ospfRouter_7_5.app[0].destAddresses = "ospfRouter_5_5"
# **.ospfRouter_8_5.app[0].destAddresses = "ospfRouter_5_5"
# **.ospfRouter_9_5.app[0].destAddresses = "ospfRouter_5_5"
# [Config fail10_test22]
# **.scenarioManager.script = xmldoc("./scenarios/test22/sqsqScenario0.100.xml")
# **.app[0].sendInterval = 0.002s
# **.app[0].messageLength = 1024 bytes
# **.ospfRouter_6_5.app[0].destAddresses = "ospfRouter_5_5"
# **.ospfRouter_7_5.app[0].destAddresses = "ospfRouter_5_5"
# **.ospfRouter_8_5.app[0].destAddresses = "ospfRouter_5_5"
# **.ospfRouter_9_5.app[0].destAddresses = "ospfRouter_5_5"
# [Config fail10_test23]
# **.scenarioManager.script = xmldoc("./scenarios/test23/sqsqScenario0.100.xml")
# **.app[0].sendInterval = 0.002s
# **.app[0].messageLength = 1024 bytes
# **.ospfRouter_6_5.app[0].destAddresses = "ospfRouter_5_5"
# **.ospfRouter_7_5.app[0].destAddresses = "ospfRouter_5_5"
# **.ospfRouter_8_5.app[0].destAddresses = "ospfRouter_5_5"
# **.ospfRouter_9_5.app[0].destAddresses = "ospfRouter_5_5"
# [Config fail10_test24]
# **.scenarioManager.script = xmldoc("./scenarios/test24/sqsqScenario0.100.xml")
# **.app[0].sendInterval = 0.002s
# **.app[0].messageLength = 1024 bytes
# **.ospfRouter_6_5.app[0].destAddresses = "ospfRouter_5_5"
# **.ospfRouter_7_5.app[0].destAddresses = "ospfRouter_5_5"
# **.ospfRouter_8_5.app[0].destAddresses = "ospfRouter_5_5"
# **.ospfRouter_9_5.app[0].destAddresses = "ospfRouter_5_5"
# [Config fail10_test25]
# **.scenarioManager.script = xmldoc("./scenarios/test25/sqsqScenario0.100.xml")
# **.app[0].sendInterval = 0.002s
# **.app[0].messageLength = 1024 bytes
# **.ospfRouter_6_5.app[0].destAddresses = "ospfRouter_5_5"
# **.ospfRouter_7_5.app[0].destAddresses = "ospfRouter_5_5"
# **.ospfRouter_8_5.app[0].destAddresses = "ospfRouter_5_5"
# **.ospfRouter_9_5.app[0].destAddresses = "ospfRouter_5_5"
# [Config fail10_test26]
# **.scenarioManager.script = xmldoc("./scenarios/test26/sqsqScenario0.100.xml")
# **.app[0].sendInterval = 0.002s
# **.app[0].messageLength = 1024 bytes
# **.ospfRouter_6_5.app[0].destAddresses = "ospfRouter_5_5"
# **.ospfRouter_7_5.app[0].destAddresses = "ospfRouter_5_5"
# **.ospfRouter_8_5.app[0].destAddresses = "ospfRouter_5_5"
# **.ospfRouter_9_5.app[0].destAddresses = "ospfRouter_5_5"
# [Config fail10_test27]
# **.scenarioManager.script = xmldoc("./scenarios/test27/sqsqScenario0.100.xml")
# **.app[0].sendInterval = 0.002s
# **.app[0].messageLength = 1024 bytes
# **.ospfRouter_6_5.app[0].destAddresses = "ospfRouter_5_5"
# **.ospfRouter_7_5.app[0].destAddresses = "ospfRouter_5_5"
# **.ospfRouter_8_5.app[0].destAddresses = "ospfRouter_5_5"
# **.ospfRouter_9_5.app[0].destAddresses = "ospfRouter_5_5"
# [Config fail10_test28]
# **.scenarioManager.script = xmldoc("./scenarios/test28/sqsqScenario0.100.xml")
# **.app[0].sendInterval = 0.002s
# **.app[0].messageLength = 1024 bytes
# **.ospfRouter_6_5.app[0].destAddresses = "ospfRouter_5_5"
# **.ospfRouter_7_5.app[0].destAddresses = "ospfRouter_5_5"
# **.ospfRouter_8_5.app[0].destAddresses = "ospfRouter_5_5"
# **.ospfRouter_9_5.app[0].destAddresses = "ospfRouter_5_5"
# [Config fail10_test29]
# **.scenarioManager.script = xmldoc("./scenarios/test29/sqsqScenario0.100.xml")
# **.app[0].sendInterval = 0.002s
# **.app[0].messageLength = 1024 bytes
# **.ospfRouter_6_5.app[0].destAddresses = "ospfRouter_5_5"
# **.ospfRouter_7_5.app[0].destAddresses = "ospfRouter_5_5"
# **.ospfRouter_8_5.app[0].destAddresses = "ospfRouter_5_5"
# **.ospfRouter_9_5.app[0].destAddresses = "ospfRouter_5_5"
# [Config fail10_test30]
# **.scenarioManager.script = xmldoc("./scenarios/test30/sqsqScenario0.100.xml")
# **.app[0].sendInterval = 0.002s
# **.app[0].messageLength = 1024 bytes
# **.ospfRouter_6_5.app[0].destAddresses = "ospfRouter_5_5"
# **.ospfRouter_7_5.app[0].destAddresses = "ospfRouter_5_5"
# **.ospfRouter_8_5.app[0].destAddresses = "ospfRouter_5_5"
# **.ospfRouter_9_5.app[0].destAddresses = "ospfRouter_5_5"
# [Config fail10_test31]
# **.scenarioManager.script = xmldoc("./scenarios/test31/sqsqScenario0.100.xml")
# **.app[0].sendInterval = 0.002s
# **.app[0].messageLength = 1024 bytes
# **.ospfRouter_6_5.app[0].destAddresses = "ospfRouter_5_5"
# **.ospfRouter_7_5.app[0].destAddresses = "ospfRouter_5_5"
# **.ospfRouter_8_5.app[0].destAddresses = "ospfRouter_5_5"
# **.ospfRouter_9_5.app[0].destAddresses = "ospfRouter_5_5"
# [Config fail10_test32]
# **.scenarioManager.script = xmldoc("./scenarios/test32/sqsqScenario0.100.xml")
# **.app[0].sendInterval = 0.002s
# **.app[0].messageLength = 1024 bytes
# **.ospfRouter_6_5.app[0].destAddresses = "ospfRouter_5_5"
# **.ospfRouter_7_5.app[0].destAddresses = "ospfRouter_5_5"
# **.ospfRouter_8_5.app[0].destAddresses = "ospfRouter_5_5"
# **.ospfRouter_9_5.app[0].destAddresses = "ospfRouter_5_5"
# [Config fail10_test33]
# **.scenarioManager.script = xmldoc("./scenarios/test33/sqsqScenario0.100.xml")
# **.app[0].sendInterval = 0.002s
# **.app[0].messageLength = 1024 bytes
# **.ospfRouter_6_5.app[0].destAddresses = "ospfRouter_5_5"
# **.ospfRouter_7_5.app[0].destAddresses = "ospfRouter_5_5"
# **.ospfRouter_8_5.app[0].destAddresses = "ospfRouter_5_5"
# **.ospfRouter_9_5.app[0].destAddresses = "ospfRouter_5_5"
# [Config fail10_test34]
# **.scenarioManager.script = xmldoc("./scenarios/test34/sqsqScenario0.100.xml")
# **.app[0].sendInterval = 0.002s
# **.app[0].messageLength = 1024 bytes
# **.ospfRouter_6_5.app[0].destAddresses = "ospfRouter_5_5"
# **.ospfRouter_7_5.app[0].destAddresses = "ospfRouter_5_5"
# **.ospfRouter_8_5.app[0].destAddresses = "ospfRouter_5_5"
# **.ospfRouter_9_5.app[0].destAddresses = "ospfRouter_5_5"
# [Config fail10_test35]
# **.scenarioManager.script = xmldoc("./scenarios/test35/sqsqScenario0.100.xml")
# **.app[0].sendInterval = 0.002s
# **.app[0].messageLength = 1024 bytes
# **.ospfRouter_6_5.app[0].destAddresses = "ospfRouter_5_5"
# **.ospfRouter_7_5.app[0].destAddresses = "ospfRouter_5_5"
# **.ospfRouter_8_5.app[0].destAddresses = "ospfRouter_5_5"
# **.ospfRouter_9_5.app[0].destAddresses = "ospfRouter_5_5"
# [Config fail10_test36]
# **.scenarioManager.script = xmldoc("./scenarios/test36/sqsqScenario0.100.xml")
# **.app[0].sendInterval = 0.002s
# **.app[0].messageLength = 1024 bytes
# **.ospfRouter_6_5.app[0].destAddresses = "ospfRouter_5_5"
# **.ospfRouter_7_5.app[0].destAddresses = "ospfRouter_5_5"
# **.ospfRouter_8_5.app[0].destAddresses = "ospfRouter_5_5"
# **.ospfRouter_9_5.app[0].destAddresses = "ospfRouter_5_5"
# [Config fail10_test37]
# **.scenarioManager.script = xmldoc("./scenarios/test37/sqsqScenario0.100.xml")
# **.app[0].sendInterval = 0.002s
# **.app[0].messageLength = 1024 bytes
# **.ospfRouter_6_5.app[0].destAddresses = "ospfRouter_5_5"
# **.ospfRouter_7_5.app[0].destAddresses = "ospfRouter_5_5"
# **.ospfRouter_8_5.app[0].destAddresses = "ospfRouter_5_5"
# **.ospfRouter_9_5.app[0].destAddresses = "ospfRouter_5_5"
# [Config fail10_test38]
# **.scenarioManager.script = xmldoc("./scenarios/test38/sqsqScenario0.100.xml")
# **.app[0].sendInterval = 0.002s
# **.app[0].messageLength = 1024 bytes
# **.ospfRouter_6_5.app[0].destAddresses = "ospfRouter_5_5"
# **.ospfRouter_7_5.app[0].destAddresses = "ospfRouter_5_5"
# **.ospfRouter_8_5.app[0].destAddresses = "ospfRouter_5_5"
# **.ospfRouter_9_5.app[0].destAddresses = "ospfRouter_5_5"
# [Config fail10_test39]
# **.scenarioManager.script = xmldoc("./scenarios/test39/sqsqScenario0.100.xml")
# **.app[0].sendInterval = 0.002s
# **.app[0].messageLength = 1024 bytes
# **.ospfRouter_6_5.app[0].destAddresses = "ospfRouter_5_5"
# **.ospfRouter_7_5.app[0].destAddresses = "ospfRouter_5_5"
# **.ospfRouter_8_5.app[0].destAddresses = "ospfRouter_5_5"
# **.ospfRouter_9_5.app[0].destAddresses = "ospfRouter_5_5"
# [Config fail10_test40]
# **.scenarioManager.script = xmldoc("./scenarios/test40/sqsqScenario0.100.xml")
# **.app[0].sendInterval = 0.002s
# **.app[0].messageLength = 1024 bytes
# **.ospfRouter_6_5.app[0].destAddresses = "ospfRouter_5_5"
# **.ospfRouter_7_5.app[0].destAddresses = "ospfRouter_5_5"
# **.ospfRouter_8_5.app[0].destAddresses = "ospfRouter_5_5"
# **.ospfRouter_9_5.app[0].destAddresses = "ospfRouter_5_5"
# [Config fail10_test41]
# **.scenarioManager.script = xmldoc("./scenarios/test41/sqsqScenario0.100.xml")
# **.app[0].sendInterval = 0.002s
# **.app[0].messageLength = 1024 bytes
# **.ospfRouter_6_5.app[0].destAddresses = "ospfRouter_5_5"
# **.ospfRouter_7_5.app[0].destAddresses = "ospfRouter_5_5"
# **.ospfRouter_8_5.app[0].destAddresses = "ospfRouter_5_5"
# **.ospfRouter_9_5.app[0].destAddresses = "ospfRouter_5_5"
# [Config fail10_test42]
# **.scenarioManager.script = xmldoc("./scenarios/test42/sqsqScenario0.100.xml")
# **.app[0].sendInterval = 0.002s
# **.app[0].messageLength = 1024 bytes