[General]
# sqsqtest
network = Network

**.ospf.ospfConfig = xmldoc("sqsqASConfig.xml")

warmup-period = 20s
sim-time-limit = 120.001s

**.ospfRouter_*_*.numApps = 2
**.app[0].typename = "UdpBasicApp"
**.app[0].destPort = 1234
**.app[0].messageLength = 32 bytes
**.app[0].sendInterval = 0.1s
**.app[0].startTime = 20s
**.app[0].stopTime = 120s
**.app[1].typename = "UdpBasicApp"
**.app[1].localPort = 1234
**.app[1].destPort = 1111
**.app[1].messageLength = 32 bytes
**.app[1].sendInterval = 0.1s

**.scalar-recording = false # shutdown the recording, only focus on the data we need
**.vector-recording = false
#**.app[0].scalar-recording = true
#**.app[0].eed.vector-recording = true
#**.result-recording-modes = default
#**.app[0].eed.result-recording-modes = vector


#**.ospfRouter_*_*.numApps = 1
#**.app[0].typename = "PingApp"
#**.ospfRouter_3_4.app[0].destAddresses = "ospfRouter_4_1"
#**.ospfRouter_3_1.app[0].destAddresses = "ospfRouter_4_2"
#**.ospfRouter_2_1.app[0].destAddresses = "ospfRouter_1_3"


**.arp.cacheTimeout = 10s

#**.ospfRouter_*_*.app[0].destAddressesesses = "ospfRouter_4_4"
#**.ospfRouter_3_1.app[0].destAddressesesses = "ospfRouter_4_2"
#**.ospfRouter_2_1.app[0].destAddressesesses = "ospfRouter_3_2"

#[Config fail0]
#**.ospfRouter_11_1.app[0].destAddressesesses = "ospfRouter_4_4"  # manhattan dis = 7
#**.scenarioManager.script = xmldoc("sqsqScenario0.000.xml")

# ------------------------------------------------------------
# fail02 means in a single second, 
# the expectation of (num_of_disconnected_link / num_of_total_link) is 02%

[Config simpleTest]
**.scenarioManager.script = xmldoc("./test_simple/testScenario.xml")
**.ospfRouter_5_3.app[0].destAddresses = "ospfRouter_2_3"

[Config fail00_test1]
**.scenarioManager.script = xmldoc("./test1/sqsqScenario0.000.xml")
**.ospfRouter_6_3.app[0].destAddresses = "ospfRouter_3_3"
[Config fail00_test2]
**.scenarioManager.script = xmldoc("./test2/sqsqScenario0.000.xml")
**.ospfRouter_6_3.app[0].destAddresses = "ospfRouter_3_3"
[Config fail00_test3]
**.scenarioManager.script = xmldoc("./test3/sqsqScenario0.000.xml")
**.ospfRouter_6_3.app[0].destAddresses = "ospfRouter_3_3"
[Config fail00_test4]
**.scenarioManager.script = xmldoc("./test4/sqsqScenario0.000.xml")
**.ospfRouter_6_3.app[0].destAddresses = "ospfRouter_3_3"
[Config fail00_test5]
**.scenarioManager.script = xmldoc("./test5/sqsqScenario0.000.xml")
**.ospfRouter_6_3.app[0].destAddresses = "ospfRouter_3_3"

[Config fail01_test1]
**.scenarioManager.script = xmldoc("./test1/sqsqScenario0.010.xml")
**.ospfRouter_6_3.app[0].destAddresses = "ospfRouter_3_3"
[Config fail01_test2]
**.scenarioManager.script = xmldoc("./test2/sqsqScenario0.010.xml")
**.ospfRouter_6_3.app[0].destAddresses = "ospfRouter_3_3"
[Config fail01_test3]
**.scenarioManager.script = xmldoc("./test3/sqsqScenario0.010.xml")
**.ospfRouter_6_3.app[0].destAddresses = "ospfRouter_3_3"
[Config fail01_test4]
**.scenarioManager.script = xmldoc("./test4/sqsqScenario0.010.xml")
**.ospfRouter_6_3.app[0].destAddresses = "ospfRouter_3_3"
[Config fail01_test5]
**.scenarioManager.script = xmldoc("./test5/sqsqScenario0.010.xml")
**.ospfRouter_6_3.app[0].destAddresses = "ospfRouter_3_3"

[Config fail02_test1]
**.scenarioManager.script = xmldoc("./test1/sqsqScenario0.020.xml")
**.ospfRouter_6_3.app[0].destAddresses = "ospfRouter_3_3"
[Config fail02_test2]
**.scenarioManager.script = xmldoc("./test2/sqsqScenario0.020.xml")
**.ospfRouter_6_3.app[0].destAddresses = "ospfRouter_3_3"
[Config fail02_test3]
**.scenarioManager.script = xmldoc("./test3/sqsqScenario0.020.xml")
**.ospfRouter_6_3.app[0].destAddresses = "ospfRouter_3_3"
[Config fail02_test4]
**.scenarioManager.script = xmldoc("./test4/sqsqScenario0.020.xml")
**.ospfRouter_6_3.app[0].destAddresses = "ospfRouter_3_3"
[Config fail02_test5]
**.scenarioManager.script = xmldoc("./test5/sqsqScenario0.020.xml")
**.ospfRouter_6_3.app[0].destAddresses = "ospfRouter_3_3"

[Config fail03_test1]
**.scenarioManager.script = xmldoc("./test1/sqsqScenario0.030.xml")
**.ospfRouter_6_3.app[0].destAddresses = "ospfRouter_3_3"
[Config fail03_test2]
**.scenarioManager.script = xmldoc("./test2/sqsqScenario0.030.xml")
**.ospfRouter_6_3.app[0].destAddresses = "ospfRouter_3_3"
[Config fail03_test3]
**.scenarioManager.script = xmldoc("./test3/sqsqScenario0.030.xml")
**.ospfRouter_6_3.app[0].destAddresses = "ospfRouter_3_3"
[Config fail03_test4]
**.scenarioManager.script = xmldoc("./test4/sqsqScenario0.030.xml")
**.ospfRouter_6_3.app[0].destAddresses = "ospfRouter_3_3"
[Config fail03_test5]
**.scenarioManager.script = xmldoc("./test5/sqsqScenario0.030.xml")
**.ospfRouter_6_3.app[0].destAddresses = "ospfRouter_3_3"

[Config fail04_test1]
**.scenarioManager.script = xmldoc("./test1/sqsqScenario0.040.xml")
**.ospfRouter_6_3.app[0].destAddresses = "ospfRouter_3_3"
[Config fail04_test2]
**.scenarioManager.script = xmldoc("./test2/sqsqScenario0.040.xml")
**.ospfRouter_6_3.app[0].destAddresses = "ospfRouter_3_3"
[Config fail04_test3]
**.scenarioManager.script = xmldoc("./test3/sqsqScenario0.040.xml")
**.ospfRouter_6_3.app[0].destAddresses = "ospfRouter_3_3"
[Config fail04_test4]
**.scenarioManager.script = xmldoc("./test4/sqsqScenario0.040.xml")
**.ospfRouter_6_3.app[0].destAddresses = "ospfRouter_3_3"
[Config fail04_test5]
**.scenarioManager.script = xmldoc("./test5/sqsqScenario0.040.xml")
**.ospfRouter_6_3.app[0].destAddresses = "ospfRouter_3_3"

[Config fail05_test1]
**.scenarioManager.script = xmldoc("./test1/sqsqScenario0.050.xml")
**.ospfRouter_6_3.app[0].destAddresses = "ospfRouter_3_3"
[Config fail05_test2]
**.scenarioManager.script = xmldoc("./test2/sqsqScenario0.050.xml")
**.ospfRouter_6_3.app[0].destAddresses = "ospfRouter_3_3"
[Config fail05_test3]
**.scenarioManager.script = xmldoc("./test3/sqsqScenario0.050.xml")
**.ospfRouter_6_3.app[0].destAddresses = "ospfRouter_3_3"
[Config fail05_test4]
**.scenarioManager.script = xmldoc("./test4/sqsqScenario0.050.xml")
**.ospfRouter_6_3.app[0].destAddresses = "ospfRouter_3_3"
[Config fail05_test5]
**.scenarioManager.script = xmldoc("./test5/sqsqScenario0.050.xml")
**.ospfRouter_6_3.app[0].destAddresses = "ospfRouter_3_3"

[Config fail06_test1]
**.scenarioManager.script = xmldoc("./test1/sqsqScenario0.060.xml")
**.ospfRouter_6_3.app[0].destAddresses = "ospfRouter_3_3"
[Config fail06_test2]
**.scenarioManager.script = xmldoc("./test2/sqsqScenario0.060.xml")
**.ospfRouter_6_3.app[0].destAddresses = "ospfRouter_3_3"
[Config fail06_test3]
**.scenarioManager.script = xmldoc("./test3/sqsqScenario0.060.xml")
**.ospfRouter_6_3.app[0].destAddresses = "ospfRouter_3_3"
[Config fail06_test4]
**.scenarioManager.script = xmldoc("./test4/sqsqScenario0.060.xml")
**.ospfRouter_6_3.app[0].destAddresses = "ospfRouter_3_3"
[Config fail06_test5]
**.scenarioManager.script = xmldoc("./test5/sqsqScenario0.060.xml")
**.ospfRouter_6_3.app[0].destAddresses = "ospfRouter_3_3"

[Config fail07_test1]
**.scenarioManager.script = xmldoc("./test1/sqsqScenario0.070.xml")
**.ospfRouter_6_3.app[0].destAddresses = "ospfRouter_3_3"
[Config fail07_test2]
**.scenarioManager.script = xmldoc("./test2/sqsqScenario0.070.xml")
**.ospfRouter_6_3.app[0].destAddresses = "ospfRouter_3_3"
[Config fail07_test3]
**.scenarioManager.script = xmldoc("./test3/sqsqScenario0.070.xml")
**.ospfRouter_6_3.app[0].destAddresses = "ospfRouter_3_3"
[Config fail07_test4]
**.scenarioManager.script = xmldoc("./test4/sqsqScenario0.070.xml")
**.ospfRouter_6_3.app[0].destAddresses = "ospfRouter_3_3"
[Config fail07_test5]
**.scenarioManager.script = xmldoc("./test5/sqsqScenario0.070.xml")
**.ospfRouter_6_3.app[0].destAddresses = "ospfRouter_3_3"

[Config fail08_test1]
**.scenarioManager.script = xmldoc("./test1/sqsqScenario0.080.xml")
**.ospfRouter_6_3.app[0].destAddresses = "ospfRouter_3_3"
[Config fail08_test2]
**.scenarioManager.script = xmldoc("./test2/sqsqScenario0.080.xml")
**.ospfRouter_6_3.app[0].destAddresses = "ospfRouter_3_3"
[Config fail08_test3]
**.scenarioManager.script = xmldoc("./test3/sqsqScenario0.080.xml")
**.ospfRouter_6_3.app[0].destAddresses = "ospfRouter_3_3"
[Config fail08_test4]
**.scenarioManager.script = xmldoc("./test4/sqsqScenario0.080.xml")
**.ospfRouter_6_3.app[0].destAddresses = "ospfRouter_3_3"
[Config fail08_test5]
**.scenarioManager.script = xmldoc("./test5/sqsqScenario0.080.xml")
**.ospfRouter_6_3.app[0].destAddresses = "ospfRouter_3_3"

[Config fail09_test1]
**.scenarioManager.script = xmldoc("./test1/sqsqScenario0.090.xml")
**.ospfRouter_6_3.app[0].destAddresses = "ospfRouter_3_3"
[Config fail09_test2]
**.scenarioManager.script = xmldoc("./test2/sqsqScenario0.090.xml")
**.ospfRouter_6_3.app[0].destAddresses = "ospfRouter_3_3"
[Config fail09_test3]
**.scenarioManager.script = xmldoc("./test3/sqsqScenario0.090.xml")
**.ospfRouter_6_3.app[0].destAddresses = "ospfRouter_3_3"
[Config fail09_test4]
**.scenarioManager.script = xmldoc("./test4/sqsqScenario0.090.xml")
**.ospfRouter_6_3.app[0].destAddresses = "ospfRouter_3_3"
[Config fail09_test5]
**.scenarioManager.script = xmldoc("./test5/sqsqScenario0.090.xml")
**.ospfRouter_6_3.app[0].destAddresses = "ospfRouter_3_3"

[Config fail10_test1]
**.scenarioManager.script = xmldoc("./test1/sqsqScenario0.100.xml")
**.ospfRouter_6_3.app[0].destAddresses = "ospfRouter_3_3"
[Config fail10_test2]
**.scenarioManager.script = xmldoc("./test2/sqsqScenario0.100.xml")
**.ospfRouter_6_3.app[0].destAddresses = "ospfRouter_3_3"
[Config fail10_test3]
**.scenarioManager.script = xmldoc("./test3/sqsqScenario0.100.xml")
**.ospfRouter_6_3.app[0].destAddresses = "ospfRouter_3_3"
[Config fail10_test4]
**.scenarioManager.script = xmldoc("./test4/sqsqScenario0.100.xml")
**.ospfRouter_6_3.app[0].destAddresses = "ospfRouter_3_3"
[Config fail10_test5]
**.scenarioManager.script = xmldoc("./test5/sqsqScenario0.100.xml")
**.ospfRouter_6_3.app[0].destAddresses = "ospfRouter_3_3"

[Config fail11_test1]
**.scenarioManager.script = xmldoc("./test1/sqsqScenario0.110.xml")
**.ospfRouter_6_3.app[0].destAddresses = "ospfRouter_3_3"
[Config fail11_test2]
**.scenarioManager.script = xmldoc("./test2/sqsqScenario0.110.xml")
**.ospfRouter_6_3.app[0].destAddresses = "ospfRouter_3_3"
[Config fail11_test3]
**.scenarioManager.script = xmldoc("./test3/sqsqScenario0.110.xml")
**.ospfRouter_6_3.app[0].destAddresses = "ospfRouter_3_3"
[Config fail11_test4]
**.scenarioManager.script = xmldoc("./test4/sqsqScenario0.110.xml")
**.ospfRouter_6_3.app[0].destAddresses = "ospfRouter_3_3"
[Config fail11_test5]
**.scenarioManager.script = xmldoc("./test5/sqsqScenario0.110.xml")
**.ospfRouter_6_3.app[0].destAddresses = "ospfRouter_3_3"

[Config fail12_test1]
**.scenarioManager.script = xmldoc("./test1/sqsqScenario0.120.xml")
**.ospfRouter_6_3.app[0].destAddresses = "ospfRouter_3_3"
[Config fail12_test2]
**.scenarioManager.script = xmldoc("./test2/sqsqScenario0.120.xml")
**.ospfRouter_6_3.app[0].destAddresses = "ospfRouter_3_3"
[Config fail12_test3]
**.scenarioManager.script = xmldoc("./test3/sqsqScenario0.120.xml")
**.ospfRouter_6_3.app[0].destAddresses = "ospfRouter_3_3"
[Config fail12_test4]
**.scenarioManager.script = xmldoc("./test4/sqsqScenario0.120.xml")
**.ospfRouter_6_3.app[0].destAddresses = "ospfRouter_3_3"
[Config fail12_test5]
**.scenarioManager.script = xmldoc("./test5/sqsqScenario0.120.xml")
**.ospfRouter_6_3.app[0].destAddresses = "ospfRouter_3_3"

[Config fail13_test1]
**.scenarioManager.script = xmldoc("./test1/sqsqScenario0.130.xml")
**.ospfRouter_6_3.app[0].destAddresses = "ospfRouter_3_3"
[Config fail13_test2]
**.scenarioManager.script = xmldoc("./test2/sqsqScenario0.130.xml")
**.ospfRouter_6_3.app[0].destAddresses = "ospfRouter_3_3"
[Config fail13_test3]
**.scenarioManager.script = xmldoc("./test3/sqsqScenario0.130.xml")
**.ospfRouter_6_3.app[0].destAddresses = "ospfRouter_3_3"
[Config fail13_test4]
**.scenarioManager.script = xmldoc("./test4/sqsqScenario0.130.xml")
**.ospfRouter_6_3.app[0].destAddresses = "ospfRouter_3_3"
[Config fail13_test5]
**.scenarioManager.script = xmldoc("./test5/sqsqScenario0.130.xml")
**.ospfRouter_6_3.app[0].destAddresses = "ospfRouter_3_3"

[Config fail14_test1]
**.scenarioManager.script = xmldoc("./test1/sqsqScenario0.140.xml")
**.ospfRouter_6_3.app[0].destAddresses = "ospfRouter_3_3"
[Config fail14_test2]
**.scenarioManager.script = xmldoc("./test2/sqsqScenario0.140.xml")
**.ospfRouter_6_3.app[0].destAddresses = "ospfRouter_3_3"
[Config fail14_test3]
**.scenarioManager.script = xmldoc("./test3/sqsqScenario0.140.xml")
**.ospfRouter_6_3.app[0].destAddresses = "ospfRouter_3_3"
[Config fail14_test4]
**.scenarioManager.script = xmldoc("./test4/sqsqScenario0.140.xml")
**.ospfRouter_6_3.app[0].destAddresses = "ospfRouter_3_3"
[Config fail14_test5]
**.scenarioManager.script = xmldoc("./test5/sqsqScenario0.140.xml")
**.ospfRouter_6_3.app[0].destAddresses = "ospfRouter_3_3"

[Config fail15_test1]
**.scenarioManager.script = xmldoc("./test1/sqsqScenario0.150.xml")
**.ospfRouter_6_3.app[0].destAddresses = "ospfRouter_3_3"
[Config fail15_test2]
**.scenarioManager.script = xmldoc("./test2/sqsqScenario0.150.xml")
**.ospfRouter_6_3.app[0].destAddresses = "ospfRouter_3_3"
[Config fail15_test3]
**.scenarioManager.script = xmldoc("./test3/sqsqScenario0.150.xml")
**.ospfRouter_6_3.app[0].destAddresses = "ospfRouter_3_3"
[Config fail15_test4]
**.scenarioManager.script = xmldoc("./test4/sqsqScenario0.150.xml")
**.ospfRouter_6_3.app[0].destAddresses = "ospfRouter_3_3"
[Config fail15_test5]
**.scenarioManager.script = xmldoc("./test5/sqsqScenario0.150.xml")
**.ospfRouter_6_3.app[0].destAddresses = "ospfRouter_3_3"

[Config fail16_test1]
**.scenarioManager.script = xmldoc("./test1/sqsqScenario0.160.xml")
**.ospfRouter_6_3.app[0].destAddresses = "ospfRouter_3_3"
[Config fail16_test2]
**.scenarioManager.script = xmldoc("./test2/sqsqScenario0.160.xml")
**.ospfRouter_6_3.app[0].destAddresses = "ospfRouter_3_3"
[Config fail16_test3]
**.scenarioManager.script = xmldoc("./test3/sqsqScenario0.160.xml")
**.ospfRouter_6_3.app[0].destAddresses = "ospfRouter_3_3"
[Config fail16_test4]
**.scenarioManager.script = xmldoc("./test4/sqsqScenario0.160.xml")
**.ospfRouter_6_3.app[0].destAddresses = "ospfRouter_3_3"
[Config fail16_test5]
**.scenarioManager.script = xmldoc("./test5/sqsqScenario0.160.xml")
**.ospfRouter_6_3.app[0].destAddresses = "ospfRouter_3_3"

[Config fail17_test1]
**.scenarioManager.script = xmldoc("./test1/sqsqScenario0.170.xml")
**.ospfRouter_6_3.app[0].destAddresses = "ospfRouter_3_3"
[Config fail17_test2]
**.scenarioManager.script = xmldoc("./test2/sqsqScenario0.170.xml")
**.ospfRouter_6_3.app[0].destAddresses = "ospfRouter_3_3"
[Config fail17_test3]
**.scenarioManager.script = xmldoc("./test3/sqsqScenario0.170.xml")
**.ospfRouter_6_3.app[0].destAddresses = "ospfRouter_3_3"
[Config fail17_test4]
**.scenarioManager.script = xmldoc("./test4/sqsqScenario0.170.xml")
**.ospfRouter_6_3.app[0].destAddresses = "ospfRouter_3_3"
[Config fail17_test5]
**.scenarioManager.script = xmldoc("./test5/sqsqScenario0.170.xml")
**.ospfRouter_6_3.app[0].destAddresses = "ospfRouter_3_3"

[Config fail18_test1]
**.scenarioManager.script = xmldoc("./test1/sqsqScenario0.180.xml")
**.ospfRouter_6_3.app[0].destAddresses = "ospfRouter_3_3"
[Config fail18_test2]
**.scenarioManager.script = xmldoc("./test2/sqsqScenario0.180.xml")
**.ospfRouter_6_3.app[0].destAddresses = "ospfRouter_3_3"
[Config fail18_test3]
**.scenarioManager.script = xmldoc("./test3/sqsqScenario0.180.xml")
**.ospfRouter_6_3.app[0].destAddresses = "ospfRouter_3_3"
[Config fail18_test4]
**.scenarioManager.script = xmldoc("./test4/sqsqScenario0.180.xml")
**.ospfRouter_6_3.app[0].destAddresses = "ospfRouter_3_3"
[Config fail18_test5]
**.scenarioManager.script = xmldoc("./test5/sqsqScenario0.180.xml")
**.ospfRouter_6_3.app[0].destAddresses = "ospfRouter_3_3"

[Config fail19_test1]
**.scenarioManager.script = xmldoc("./test1/sqsqScenario0.190.xml")
**.ospfRouter_6_3.app[0].destAddresses = "ospfRouter_3_3"
[Config fail19_test2]
**.scenarioManager.script = xmldoc("./test2/sqsqScenario0.190.xml")
**.ospfRouter_6_3.app[0].destAddresses = "ospfRouter_3_3"
[Config fail19_test3]
**.scenarioManager.script = xmldoc("./test3/sqsqScenario0.190.xml")
**.ospfRouter_6_3.app[0].destAddresses = "ospfRouter_3_3"
[Config fail19_test4]
**.scenarioManager.script = xmldoc("./test4/sqsqScenario0.190.xml")
**.ospfRouter_6_3.app[0].destAddresses = "ospfRouter_3_3"
[Config fail19_test5]
**.scenarioManager.script = xmldoc("./test5/sqsqScenario0.190.xml")
**.ospfRouter_6_3.app[0].destAddresses = "ospfRouter_3_3"

[Config fail20_test1]
**.scenarioManager.script = xmldoc("./test1/sqsqScenario0.200.xml")
**.ospfRouter_6_3.app[0].destAddresses = "ospfRouter_3_3"
[Config fail20_test2]
**.scenarioManager.script = xmldoc("./test2/sqsqScenario0.200.xml")
**.ospfRouter_6_3.app[0].destAddresses = "ospfRouter_3_3"
[Config fail20_test3]
**.scenarioManager.script = xmldoc("./test3/sqsqScenario0.200.xml")
**.ospfRouter_6_3.app[0].destAddresses = "ospfRouter_3_3"
[Config fail20_test4]
**.scenarioManager.script = xmldoc("./test4/sqsqScenario0.200.xml")
**.ospfRouter_6_3.app[0].destAddresses = "ospfRouter_3_3"
[Config fail20_test5]
**.scenarioManager.script = xmldoc("./test5/sqsqScenario0.200.xml")
**.ospfRouter_6_3.app[0].destAddresses = "ospfRouter_3_3"
