[General]
# sqsqtest
network = Network

**.ospf.ospfConfig = xmldoc("sqsqASConfig.xml")

warmup-period = 20s
sim-time-limit = 120.001s

**.ospfRouter_*_*.numApps = 2
**.app[0].typename = "UdpBasicApp"
**.app[0].destPort = 1234
**.app[0].messageLength = 32 bytes
**.app[0].sendInterval = 0.1s
**.app[0].startTime = 20s
**.app[0].stopTime = 120s
**.app[1].typename = "UdpBasicApp"
**.app[1].localPort = 1234
**.app[1].destPort = 1111
**.app[1].messageLength = 32 bytes
**.app[1].sendInterval = 0.1s

**.scalar-recording = false # shutdown the recording, only focus on the data we need
**.vector-recording = false

#**.result-recording-modes = default
#**.app[0].eed.result-recording-modes = vector


**.arp.cacheTimeout = 10s

#**.ospfRouter_*_*.app[0].destAddressesesses = "ospfRouter_4_4"
#**.ospfRouter_3_1.app[0].destAddressesesses = "ospfRouter_4_2"
#**.ospfRouter_2_1.app[0].destAddressesesses = "ospfRouter_3_2"

#[Config fail0]
#**.ospfRouter_11_1.app[0].destAddressesesses = "ospfRouter_4_4"  # manhattan dis = 7
#**.scenarioManager.script = xmldoc("sqsqScenario0.000.xml")

# ------------------------------------------------------------
# fail02 means in a single second, 
# the expectation of (num_of_disconnected_link / num_of_total_link) is 02%

[Config test-load]
**.app[0].sendInterval = 0.0001s
**.ospfRouter_5_3.app[0].destAddresses = "ospfRouter_4_3"
**.ospfRouter_6_3.app[0].destAddresses = "ospfRouter_4_3"
**.ospfRouter_7_3.app[0].destAddresses = "ospfRouter_4_3"
**.ospfRouter_8_3.app[0].destAddresses = "ospfRouter_4_3"


[Config test-shut]
**.scenarioManager.script = xmldoc("./test_simple/testScenario.xml")
**.ospfRouter_6_3.app[0].destAddresses = "ospfRouter_4_3"


[Config fail00_test1]
**.scenarioManager.script = xmldoc("./scenarios/test1/sqsqScenario0.000.xml")
**.ospfRouter_9_3.app[0].destAddresses = "ospfRouter_5_5"
[Config fail00_test2]
**.scenarioManager.script = xmldoc("./scenarios/test2/sqsqScenario0.000.xml")
**.ospfRouter_9_3.app[0].destAddresses = "ospfRouter_5_5"
[Config fail00_test3]
**.scenarioManager.script = xmldoc("./scenarios/test3/sqsqScenario0.000.xml")
**.ospfRouter_9_3.app[0].destAddresses = "ospfRouter_5_5"
[Config fail00_test4]
**.scenarioManager.script = xmldoc("./scenarios/test4/sqsqScenario0.000.xml")
**.ospfRouter_9_3.app[0].destAddresses = "ospfRouter_5_5"
[Config fail00_test5]
**.scenarioManager.script = xmldoc("./scenarios/test5/sqsqScenario0.000.xml")
**.ospfRouter_9_3.app[0].destAddresses = "ospfRouter_5_5"
[Config fail00_test6]
**.scenarioManager.script = xmldoc("./scenarios/test6/sqsqScenario0.000.xml")
**.ospfRouter_9_3.app[0].destAddresses = "ospfRouter_5_5"
[Config fail00_test7]
**.scenarioManager.script = xmldoc("./scenarios/test7/sqsqScenario0.000.xml")
**.ospfRouter_9_3.app[0].destAddresses = "ospfRouter_5_5"
[Config fail00_test8]
**.scenarioManager.script = xmldoc("./scenarios/test8/sqsqScenario0.000.xml")
**.ospfRouter_9_3.app[0].destAddresses = "ospfRouter_5_5"
[Config fail00_test9]
**.scenarioManager.script = xmldoc("./scenarios/test9/sqsqScenario0.000.xml")
**.ospfRouter_9_3.app[0].destAddresses = "ospfRouter_5_5"
[Config fail00_test10]
**.scenarioManager.script = xmldoc("./scenarios/test10/sqsqScenario0.000.xml")
**.ospfRouter_9_3.app[0].destAddresses = "ospfRouter_5_5"
[Config fail00_test11]
**.scenarioManager.script = xmldoc("./scenarios/test11/sqsqScenario0.000.xml")
**.ospfRouter_9_3.app[0].destAddresses = "ospfRouter_5_5"
[Config fail00_test12]
**.scenarioManager.script = xmldoc("./scenarios/test12/sqsqScenario0.000.xml")
**.ospfRouter_9_3.app[0].destAddresses = "ospfRouter_5_5"
[Config fail00_test13]
**.scenarioManager.script = xmldoc("./scenarios/test13/sqsqScenario0.000.xml")
**.ospfRouter_9_3.app[0].destAddresses = "ospfRouter_5_5"
[Config fail00_test14]
**.scenarioManager.script = xmldoc("./scenarios/test14/sqsqScenario0.000.xml")
**.ospfRouter_9_3.app[0].destAddresses = "ospfRouter_5_5"
[Config fail00_test15]
**.scenarioManager.script = xmldoc("./scenarios/test15/sqsqScenario0.000.xml")
**.ospfRouter_9_3.app[0].destAddresses = "ospfRouter_5_5"
[Config fail00_test16]
**.scenarioManager.script = xmldoc("./scenarios/test16/sqsqScenario0.000.xml")
**.ospfRouter_9_3.app[0].destAddresses = "ospfRouter_5_5"
[Config fail00_test17]
**.scenarioManager.script = xmldoc("./scenarios/test17/sqsqScenario0.000.xml")
**.ospfRouter_9_3.app[0].destAddresses = "ospfRouter_5_5"
[Config fail00_test18]
**.scenarioManager.script = xmldoc("./scenarios/test18/sqsqScenario0.000.xml")
**.ospfRouter_9_3.app[0].destAddresses = "ospfRouter_5_5"
[Config fail00_test19]
**.scenarioManager.script = xmldoc("./scenarios/test19/sqsqScenario0.000.xml")
**.ospfRouter_9_3.app[0].destAddresses = "ospfRouter_5_5"
[Config fail00_test20]
**.scenarioManager.script = xmldoc("./scenarios/test20/sqsqScenario0.000.xml")
**.ospfRouter_9_3.app[0].destAddresses = "ospfRouter_5_5"
[Config fail00_test21]
**.scenarioManager.script = xmldoc("./scenarios/test21/sqsqScenario0.000.xml")
**.ospfRouter_9_3.app[0].destAddresses = "ospfRouter_5_5"
[Config fail00_test22]
**.scenarioManager.script = xmldoc("./scenarios/test22/sqsqScenario0.000.xml")
**.ospfRouter_9_3.app[0].destAddresses = "ospfRouter_5_5"
[Config fail00_test23]
**.scenarioManager.script = xmldoc("./scenarios/test23/sqsqScenario0.000.xml")
**.ospfRouter_9_3.app[0].destAddresses = "ospfRouter_5_5"
[Config fail00_test24]
**.scenarioManager.script = xmldoc("./scenarios/test24/sqsqScenario0.000.xml")
**.ospfRouter_9_3.app[0].destAddresses = "ospfRouter_5_5"
[Config fail00_test25]
**.scenarioManager.script = xmldoc("./scenarios/test25/sqsqScenario0.000.xml")
**.ospfRouter_9_3.app[0].destAddresses = "ospfRouter_5_5"
[Config fail00_test26]
**.scenarioManager.script = xmldoc("./scenarios/test26/sqsqScenario0.000.xml")
**.ospfRouter_9_3.app[0].destAddresses = "ospfRouter_5_5"
[Config fail00_test27]
**.scenarioManager.script = xmldoc("./scenarios/test27/sqsqScenario0.000.xml")
**.ospfRouter_9_3.app[0].destAddresses = "ospfRouter_5_5"
[Config fail00_test28]
**.scenarioManager.script = xmldoc("./scenarios/test28/sqsqScenario0.000.xml")
**.ospfRouter_9_3.app[0].destAddresses = "ospfRouter_5_5"
[Config fail00_test29]
**.scenarioManager.script = xmldoc("./scenarios/test29/sqsqScenario0.000.xml")
**.ospfRouter_9_3.app[0].destAddresses = "ospfRouter_5_5"
[Config fail00_test30]
**.scenarioManager.script = xmldoc("./scenarios/test30/sqsqScenario0.000.xml")
**.ospfRouter_9_3.app[0].destAddresses = "ospfRouter_5_5"
[Config fail00_test31]
**.scenarioManager.script = xmldoc("./scenarios/test31/sqsqScenario0.000.xml")
**.ospfRouter_9_3.app[0].destAddresses = "ospfRouter_5_5"
[Config fail00_test32]
**.scenarioManager.script = xmldoc("./scenarios/test32/sqsqScenario0.000.xml")
**.ospfRouter_9_3.app[0].destAddresses = "ospfRouter_5_5"
[Config fail00_test33]
**.scenarioManager.script = xmldoc("./scenarios/test33/sqsqScenario0.000.xml")
**.ospfRouter_9_3.app[0].destAddresses = "ospfRouter_5_5"
[Config fail00_test34]
**.scenarioManager.script = xmldoc("./scenarios/test34/sqsqScenario0.000.xml")
**.ospfRouter_9_3.app[0].destAddresses = "ospfRouter_5_5"
[Config fail00_test35]
**.scenarioManager.script = xmldoc("./scenarios/test35/sqsqScenario0.000.xml")
**.ospfRouter_9_3.app[0].destAddresses = "ospfRouter_5_5"
[Config fail00_test36]
**.scenarioManager.script = xmldoc("./scenarios/test36/sqsqScenario0.000.xml")
**.ospfRouter_9_3.app[0].destAddresses = "ospfRouter_5_5"
[Config fail00_test37]
**.scenarioManager.script = xmldoc("./scenarios/test37/sqsqScenario0.000.xml")
**.ospfRouter_9_3.app[0].destAddresses = "ospfRouter_5_5"
[Config fail00_test38]
**.scenarioManager.script = xmldoc("./scenarios/test38/sqsqScenario0.000.xml")
**.ospfRouter_9_3.app[0].destAddresses = "ospfRouter_5_5"
[Config fail00_test39]
**.scenarioManager.script = xmldoc("./scenarios/test39/sqsqScenario0.000.xml")
**.ospfRouter_9_3.app[0].destAddresses = "ospfRouter_5_5"
[Config fail00_test40]
**.scenarioManager.script = xmldoc("./scenarios/test40/sqsqScenario0.000.xml")
**.ospfRouter_9_3.app[0].destAddresses = "ospfRouter_5_5"
[Config fail00_test41]
**.scenarioManager.script = xmldoc("./scenarios/test41/sqsqScenario0.000.xml")
**.ospfRouter_9_3.app[0].destAddresses = "ospfRouter_5_5"
[Config fail00_test42]
**.scenarioManager.script = xmldoc("./scenarios/test42/sqsqScenario0.000.xml")
**.ospfRouter_9_3.app[0].destAddresses = "ospfRouter_5_5"
[Config fail00_test43]
**.scenarioManager.script = xmldoc("./scenarios/test43/sqsqScenario0.000.xml")
**.ospfRouter_9_3.app[0].destAddresses = "ospfRouter_5_5"
[Config fail00_test44]
**.scenarioManager.script = xmldoc("./scenarios/test44/sqsqScenario0.000.xml")
**.ospfRouter_9_3.app[0].destAddresses = "ospfRouter_5_5"
[Config fail00_test45]
**.scenarioManager.script = xmldoc("./scenarios/test45/sqsqScenario0.000.xml")
**.ospfRouter_9_3.app[0].destAddresses = "ospfRouter_5_5"
[Config fail00_test46]
**.scenarioManager.script = xmldoc("./scenarios/test46/sqsqScenario0.000.xml")
**.ospfRouter_9_3.app[0].destAddresses = "ospfRouter_5_5"
[Config fail00_test47]
**.scenarioManager.script = xmldoc("./scenarios/test47/sqsqScenario0.000.xml")
**.ospfRouter_9_3.app[0].destAddresses = "ospfRouter_5_5"
[Config fail00_test48]
**.scenarioManager.script = xmldoc("./scenarios/test48/sqsqScenario0.000.xml")
**.ospfRouter_9_3.app[0].destAddresses = "ospfRouter_5_5"
[Config fail00_test49]
**.scenarioManager.script = xmldoc("./scenarios/test49/sqsqScenario0.000.xml")
**.ospfRouter_9_3.app[0].destAddresses = "ospfRouter_5_5"
[Config fail00_test50]
**.scenarioManager.script = xmldoc("./scenarios/test50/sqsqScenario0.000.xml")
**.ospfRouter_9_3.app[0].destAddresses = "ospfRouter_5_5"

[Config fail01_test1]
**.scenarioManager.script = xmldoc("./scenarios/test1/sqsqScenario0.010.xml")
**.ospfRouter_9_3.app[0].destAddresses = "ospfRouter_5_5"
[Config fail01_test2]
**.scenarioManager.script = xmldoc("./scenarios/test2/sqsqScenario0.010.xml")
**.ospfRouter_9_3.app[0].destAddresses = "ospfRouter_5_5"
[Config fail01_test3]
**.scenarioManager.script = xmldoc("./scenarios/test3/sqsqScenario0.010.xml")
**.ospfRouter_9_3.app[0].destAddresses = "ospfRouter_5_5"
[Config fail01_test4]
**.scenarioManager.script = xmldoc("./scenarios/test4/sqsqScenario0.010.xml")
**.ospfRouter_9_3.app[0].destAddresses = "ospfRouter_5_5"
[Config fail01_test5]
**.scenarioManager.script = xmldoc("./scenarios/test5/sqsqScenario0.010.xml")
**.ospfRouter_9_3.app[0].destAddresses = "ospfRouter_5_5"
[Config fail01_test6]
**.scenarioManager.script = xmldoc("./scenarios/test6/sqsqScenario0.010.xml")
**.ospfRouter_9_3.app[0].destAddresses = "ospfRouter_5_5"
[Config fail01_test7]
**.scenarioManager.script = xmldoc("./scenarios/test7/sqsqScenario0.010.xml")
**.ospfRouter_9_3.app[0].destAddresses = "ospfRouter_5_5"
[Config fail01_test8]
**.scenarioManager.script = xmldoc("./scenarios/test8/sqsqScenario0.010.xml")
**.ospfRouter_9_3.app[0].destAddresses = "ospfRouter_5_5"
[Config fail01_test9]
**.scenarioManager.script = xmldoc("./scenarios/test9/sqsqScenario0.010.xml")
**.ospfRouter_9_3.app[0].destAddresses = "ospfRouter_5_5"
[Config fail01_test10]
**.scenarioManager.script = xmldoc("./scenarios/test10/sqsqScenario0.010.xml")
**.ospfRouter_9_3.app[0].destAddresses = "ospfRouter_5_5"
[Config fail01_test11]
**.scenarioManager.script = xmldoc("./scenarios/test11/sqsqScenario0.010.xml")
**.ospfRouter_9_3.app[0].destAddresses = "ospfRouter_5_5"
[Config fail01_test12]
**.scenarioManager.script = xmldoc("./scenarios/test12/sqsqScenario0.010.xml")
**.ospfRouter_9_3.app[0].destAddresses = "ospfRouter_5_5"
[Config fail01_test13]
**.scenarioManager.script = xmldoc("./scenarios/test13/sqsqScenario0.010.xml")
**.ospfRouter_9_3.app[0].destAddresses = "ospfRouter_5_5"
[Config fail01_test14]
**.scenarioManager.script = xmldoc("./scenarios/test14/sqsqScenario0.010.xml")
**.ospfRouter_9_3.app[0].destAddresses = "ospfRouter_5_5"
[Config fail01_test15]
**.scenarioManager.script = xmldoc("./scenarios/test15/sqsqScenario0.010.xml")
**.ospfRouter_9_3.app[0].destAddresses = "ospfRouter_5_5"
[Config fail01_test16]
**.scenarioManager.script = xmldoc("./scenarios/test16/sqsqScenario0.010.xml")
**.ospfRouter_9_3.app[0].destAddresses = "ospfRouter_5_5"
[Config fail01_test17]
**.scenarioManager.script = xmldoc("./scenarios/test17/sqsqScenario0.010.xml")
**.ospfRouter_9_3.app[0].destAddresses = "ospfRouter_5_5"
[Config fail01_test18]
**.scenarioManager.script = xmldoc("./scenarios/test18/sqsqScenario0.010.xml")
**.ospfRouter_9_3.app[0].destAddresses = "ospfRouter_5_5"
[Config fail01_test19]
**.scenarioManager.script = xmldoc("./scenarios/test19/sqsqScenario0.010.xml")
**.ospfRouter_9_3.app[0].destAddresses = "ospfRouter_5_5"
[Config fail01_test20]
**.scenarioManager.script = xmldoc("./scenarios/test20/sqsqScenario0.010.xml")
**.ospfRouter_9_3.app[0].destAddresses = "ospfRouter_5_5"
[Config fail01_test21]
**.scenarioManager.script = xmldoc("./scenarios/test21/sqsqScenario0.010.xml")
**.ospfRouter_9_3.app[0].destAddresses = "ospfRouter_5_5"
[Config fail01_test22]
**.scenarioManager.script = xmldoc("./scenarios/test22/sqsqScenario0.010.xml")
**.ospfRouter_9_3.app[0].destAddresses = "ospfRouter_5_5"
[Config fail01_test23]
**.scenarioManager.script = xmldoc("./scenarios/test23/sqsqScenario0.010.xml")
**.ospfRouter_9_3.app[0].destAddresses = "ospfRouter_5_5"
[Config fail01_test24]
**.scenarioManager.script = xmldoc("./scenarios/test24/sqsqScenario0.010.xml")
**.ospfRouter_9_3.app[0].destAddresses = "ospfRouter_5_5"
[Config fail01_test25]
**.scenarioManager.script = xmldoc("./scenarios/test25/sqsqScenario0.010.xml")
**.ospfRouter_9_3.app[0].destAddresses = "ospfRouter_5_5"
[Config fail01_test26]
**.scenarioManager.script = xmldoc("./scenarios/test26/sqsqScenario0.010.xml")
**.ospfRouter_9_3.app[0].destAddresses = "ospfRouter_5_5"
[Config fail01_test27]
**.scenarioManager.script = xmldoc("./scenarios/test27/sqsqScenario0.010.xml")
**.ospfRouter_9_3.app[0].destAddresses = "ospfRouter_5_5"
[Config fail01_test28]
**.scenarioManager.script = xmldoc("./scenarios/test28/sqsqScenario0.010.xml")
**.ospfRouter_9_3.app[0].destAddresses = "ospfRouter_5_5"
[Config fail01_test29]
**.scenarioManager.script = xmldoc("./scenarios/test29/sqsqScenario0.010.xml")
**.ospfRouter_9_3.app[0].destAddresses = "ospfRouter_5_5"
[Config fail01_test30]
**.scenarioManager.script = xmldoc("./scenarios/test30/sqsqScenario0.010.xml")
**.ospfRouter_9_3.app[0].destAddresses = "ospfRouter_5_5"
[Config fail01_test31]
**.scenarioManager.script = xmldoc("./scenarios/test31/sqsqScenario0.010.xml")
**.ospfRouter_9_3.app[0].destAddresses = "ospfRouter_5_5"
[Config fail01_test32]
**.scenarioManager.script = xmldoc("./scenarios/test32/sqsqScenario0.010.xml")
**.ospfRouter_9_3.app[0].destAddresses = "ospfRouter_5_5"
[Config fail01_test33]
**.scenarioManager.script = xmldoc("./scenarios/test33/sqsqScenario0.010.xml")
**.ospfRouter_9_3.app[0].destAddresses = "ospfRouter_5_5"
[Config fail01_test34]
**.scenarioManager.script = xmldoc("./scenarios/test34/sqsqScenario0.010.xml")
**.ospfRouter_9_3.app[0].destAddresses = "ospfRouter_5_5"
[Config fail01_test35]
**.scenarioManager.script = xmldoc("./scenarios/test35/sqsqScenario0.010.xml")
**.ospfRouter_9_3.app[0].destAddresses = "ospfRouter_5_5"
[Config fail01_test36]
**.scenarioManager.script = xmldoc("./scenarios/test36/sqsqScenario0.010.xml")
**.ospfRouter_9_3.app[0].destAddresses = "ospfRouter_5_5"
[Config fail01_test37]
**.scenarioManager.script = xmldoc("./scenarios/test37/sqsqScenario0.010.xml")
**.ospfRouter_9_3.app[0].destAddresses = "ospfRouter_5_5"
[Config fail01_test38]
**.scenarioManager.script = xmldoc("./scenarios/test38/sqsqScenario0.010.xml")
**.ospfRouter_9_3.app[0].destAddresses = "ospfRouter_5_5"
[Config fail01_test39]
**.scenarioManager.script = xmldoc("./scenarios/test39/sqsqScenario0.010.xml")
**.ospfRouter_9_3.app[0].destAddresses = "ospfRouter_5_5"
[Config fail01_test40]
**.scenarioManager.script = xmldoc("./scenarios/test40/sqsqScenario0.010.xml")
**.ospfRouter_9_3.app[0].destAddresses = "ospfRouter_5_5"
[Config fail01_test41]
**.scenarioManager.script = xmldoc("./scenarios/test41/sqsqScenario0.010.xml")
**.ospfRouter_9_3.app[0].destAddresses = "ospfRouter_5_5"
[Config fail01_test42]
**.scenarioManager.script = xmldoc("./scenarios/test42/sqsqScenario0.010.xml")
**.ospfRouter_9_3.app[0].destAddresses = "ospfRouter_5_5"
[Config fail01_test43]
**.scenarioManager.script = xmldoc("./scenarios/test43/sqsqScenario0.010.xml")
**.ospfRouter_9_3.app[0].destAddresses = "ospfRouter_5_5"
[Config fail01_test44]
**.scenarioManager.script = xmldoc("./scenarios/test44/sqsqScenario0.010.xml")
**.ospfRouter_9_3.app[0].destAddresses = "ospfRouter_5_5"
[Config fail01_test45]
**.scenarioManager.script = xmldoc("./scenarios/test45/sqsqScenario0.010.xml")
**.ospfRouter_9_3.app[0].destAddresses = "ospfRouter_5_5"
[Config fail01_test46]
**.scenarioManager.script = xmldoc("./scenarios/test46/sqsqScenario0.010.xml")
**.ospfRouter_9_3.app[0].destAddresses = "ospfRouter_5_5"
[Config fail01_test47]
**.scenarioManager.script = xmldoc("./scenarios/test47/sqsqScenario0.010.xml")
**.ospfRouter_9_3.app[0].destAddresses = "ospfRouter_5_5"
[Config fail01_test48]
**.scenarioManager.script = xmldoc("./scenarios/test48/sqsqScenario0.010.xml")
**.ospfRouter_9_3.app[0].destAddresses = "ospfRouter_5_5"
[Config fail01_test49]
**.scenarioManager.script = xmldoc("./scenarios/test49/sqsqScenario0.010.xml")
**.ospfRouter_9_3.app[0].destAddresses = "ospfRouter_5_5"
[Config fail01_test50]
**.scenarioManager.script = xmldoc("./scenarios/test50/sqsqScenario0.010.xml")
**.ospfRouter_9_3.app[0].destAddresses = "ospfRouter_5_5"

[Config fail02_test1]
**.scenarioManager.script = xmldoc("./scenarios/test1/sqsqScenario0.020.xml")
**.ospfRouter_9_3.app[0].destAddresses = "ospfRouter_5_5"
[Config fail02_test2]
**.scenarioManager.script = xmldoc("./scenarios/test2/sqsqScenario0.020.xml")
**.ospfRouter_9_3.app[0].destAddresses = "ospfRouter_5_5"
[Config fail02_test3]
**.scenarioManager.script = xmldoc("./scenarios/test3/sqsqScenario0.020.xml")
**.ospfRouter_9_3.app[0].destAddresses = "ospfRouter_5_5"
[Config fail02_test4]
**.scenarioManager.script = xmldoc("./scenarios/test4/sqsqScenario0.020.xml")
**.ospfRouter_9_3.app[0].destAddresses = "ospfRouter_5_5"
[Config fail02_test5]
**.scenarioManager.script = xmldoc("./scenarios/test5/sqsqScenario0.020.xml")
**.ospfRouter_9_3.app[0].destAddresses = "ospfRouter_5_5"
[Config fail02_test6]
**.scenarioManager.script = xmldoc("./scenarios/test6/sqsqScenario0.020.xml")
**.ospfRouter_9_3.app[0].destAddresses = "ospfRouter_5_5"
[Config fail02_test7]
**.scenarioManager.script = xmldoc("./scenarios/test7/sqsqScenario0.020.xml")
**.ospfRouter_9_3.app[0].destAddresses = "ospfRouter_5_5"
[Config fail02_test8]
**.scenarioManager.script = xmldoc("./scenarios/test8/sqsqScenario0.020.xml")
**.ospfRouter_9_3.app[0].destAddresses = "ospfRouter_5_5"
[Config fail02_test9]
**.scenarioManager.script = xmldoc("./scenarios/test9/sqsqScenario0.020.xml")
**.ospfRouter_9_3.app[0].destAddresses = "ospfRouter_5_5"
[Config fail02_test10]
**.scenarioManager.script = xmldoc("./scenarios/test10/sqsqScenario0.020.xml")
**.ospfRouter_9_3.app[0].destAddresses = "ospfRouter_5_5"
[Config fail02_test11]
**.scenarioManager.script = xmldoc("./scenarios/test11/sqsqScenario0.020.xml")
**.ospfRouter_9_3.app[0].destAddresses = "ospfRouter_5_5"
[Config fail02_test12]
**.scenarioManager.script = xmldoc("./scenarios/test12/sqsqScenario0.020.xml")
**.ospfRouter_9_3.app[0].destAddresses = "ospfRouter_5_5"
[Config fail02_test13]
**.scenarioManager.script = xmldoc("./scenarios/test13/sqsqScenario0.020.xml")
**.ospfRouter_9_3.app[0].destAddresses = "ospfRouter_5_5"
[Config fail02_test14]
**.scenarioManager.script = xmldoc("./scenarios/test14/sqsqScenario0.020.xml")
**.ospfRouter_9_3.app[0].destAddresses = "ospfRouter_5_5"
[Config fail02_test15]
**.scenarioManager.script = xmldoc("./scenarios/test15/sqsqScenario0.020.xml")
**.ospfRouter_9_3.app[0].destAddresses = "ospfRouter_5_5"
[Config fail02_test16]
**.scenarioManager.script = xmldoc("./scenarios/test16/sqsqScenario0.020.xml")
**.ospfRouter_9_3.app[0].destAddresses = "ospfRouter_5_5"
[Config fail02_test17]
**.scenarioManager.script = xmldoc("./scenarios/test17/sqsqScenario0.020.xml")
**.ospfRouter_9_3.app[0].destAddresses = "ospfRouter_5_5"
[Config fail02_test18]
**.scenarioManager.script = xmldoc("./scenarios/test18/sqsqScenario0.020.xml")
**.ospfRouter_9_3.app[0].destAddresses = "ospfRouter_5_5"
[Config fail02_test19]
**.scenarioManager.script = xmldoc("./scenarios/test19/sqsqScenario0.020.xml")
**.ospfRouter_9_3.app[0].destAddresses = "ospfRouter_5_5"
[Config fail02_test20]
**.scenarioManager.script = xmldoc("./scenarios/test20/sqsqScenario0.020.xml")
**.ospfRouter_9_3.app[0].destAddresses = "ospfRouter_5_5"
[Config fail02_test21]
**.scenarioManager.script = xmldoc("./scenarios/test21/sqsqScenario0.020.xml")
**.ospfRouter_9_3.app[0].destAddresses = "ospfRouter_5_5"
[Config fail02_test22]
**.scenarioManager.script = xmldoc("./scenarios/test22/sqsqScenario0.020.xml")
**.ospfRouter_9_3.app[0].destAddresses = "ospfRouter_5_5"
[Config fail02_test23]
**.scenarioManager.script = xmldoc("./scenarios/test23/sqsqScenario0.020.xml")
**.ospfRouter_9_3.app[0].destAddresses = "ospfRouter_5_5"
[Config fail02_test24]
**.scenarioManager.script = xmldoc("./scenarios/test24/sqsqScenario0.020.xml")
**.ospfRouter_9_3.app[0].destAddresses = "ospfRouter_5_5"
[Config fail02_test25]
**.scenarioManager.script = xmldoc("./scenarios/test25/sqsqScenario0.020.xml")
**.ospfRouter_9_3.app[0].destAddresses = "ospfRouter_5_5"
[Config fail02_test26]
**.scenarioManager.script = xmldoc("./scenarios/test26/sqsqScenario0.020.xml")
**.ospfRouter_9_3.app[0].destAddresses = "ospfRouter_5_5"
[Config fail02_test27]
**.scenarioManager.script = xmldoc("./scenarios/test27/sqsqScenario0.020.xml")
**.ospfRouter_9_3.app[0].destAddresses = "ospfRouter_5_5"
[Config fail02_test28]
**.scenarioManager.script = xmldoc("./scenarios/test28/sqsqScenario0.020.xml")
**.ospfRouter_9_3.app[0].destAddresses = "ospfRouter_5_5"
[Config fail02_test29]
**.scenarioManager.script = xmldoc("./scenarios/test29/sqsqScenario0.020.xml")
**.ospfRouter_9_3.app[0].destAddresses = "ospfRouter_5_5"
[Config fail02_test30]
**.scenarioManager.script = xmldoc("./scenarios/test30/sqsqScenario0.020.xml")
**.ospfRouter_9_3.app[0].destAddresses = "ospfRouter_5_5"
[Config fail02_test31]
**.scenarioManager.script = xmldoc("./scenarios/test31/sqsqScenario0.020.xml")
**.ospfRouter_9_3.app[0].destAddresses = "ospfRouter_5_5"
[Config fail02_test32]
**.scenarioManager.script = xmldoc("./scenarios/test32/sqsqScenario0.020.xml")
**.ospfRouter_9_3.app[0].destAddresses = "ospfRouter_5_5"
[Config fail02_test33]
**.scenarioManager.script = xmldoc("./scenarios/test33/sqsqScenario0.020.xml")
**.ospfRouter_9_3.app[0].destAddresses = "ospfRouter_5_5"
[Config fail02_test34]
**.scenarioManager.script = xmldoc("./scenarios/test34/sqsqScenario0.020.xml")
**.ospfRouter_9_3.app[0].destAddresses = "ospfRouter_5_5"
[Config fail02_test35]
**.scenarioManager.script = xmldoc("./scenarios/test35/sqsqScenario0.020.xml")
**.ospfRouter_9_3.app[0].destAddresses = "ospfRouter_5_5"
[Config fail02_test36]
**.scenarioManager.script = xmldoc("./scenarios/test36/sqsqScenario0.020.xml")
**.ospfRouter_9_3.app[0].destAddresses = "ospfRouter_5_5"
[Config fail02_test37]
**.scenarioManager.script = xmldoc("./scenarios/test37/sqsqScenario0.020.xml")
**.ospfRouter_9_3.app[0].destAddresses = "ospfRouter_5_5"
[Config fail02_test38]
**.scenarioManager.script = xmldoc("./scenarios/test38/sqsqScenario0.020.xml")
**.ospfRouter_9_3.app[0].destAddresses = "ospfRouter_5_5"
[Config fail02_test39]
**.scenarioManager.script = xmldoc("./scenarios/test39/sqsqScenario0.020.xml")
**.ospfRouter_9_3.app[0].destAddresses = "ospfRouter_5_5"
[Config fail02_test40]
**.scenarioManager.script = xmldoc("./scenarios/test40/sqsqScenario0.020.xml")
**.ospfRouter_9_3.app[0].destAddresses = "ospfRouter_5_5"
[Config fail02_test41]
**.scenarioManager.script = xmldoc("./scenarios/test41/sqsqScenario0.020.xml")
**.ospfRouter_9_3.app[0].destAddresses = "ospfRouter_5_5"
[Config fail02_test42]
**.scenarioManager.script = xmldoc("./scenarios/test42/sqsqScenario0.020.xml")
**.ospfRouter_9_3.app[0].destAddresses = "ospfRouter_5_5"
[Config fail02_test43]
**.scenarioManager.script = xmldoc("./scenarios/test43/sqsqScenario0.020.xml")
**.ospfRouter_9_3.app[0].destAddresses = "ospfRouter_5_5"
[Config fail02_test44]
**.scenarioManager.script = xmldoc("./scenarios/test44/sqsqScenario0.020.xml")
**.ospfRouter_9_3.app[0].destAddresses = "ospfRouter_5_5"
[Config fail02_test45]
**.scenarioManager.script = xmldoc("./scenarios/test45/sqsqScenario0.020.xml")
**.ospfRouter_9_3.app[0].destAddresses = "ospfRouter_5_5"
[Config fail02_test46]
**.scenarioManager.script = xmldoc("./scenarios/test46/sqsqScenario0.020.xml")
**.ospfRouter_9_3.app[0].destAddresses = "ospfRouter_5_5"
[Config fail02_test47]
**.scenarioManager.script = xmldoc("./scenarios/test47/sqsqScenario0.020.xml")
**.ospfRouter_9_3.app[0].destAddresses = "ospfRouter_5_5"
[Config fail02_test48]
**.scenarioManager.script = xmldoc("./scenarios/test48/sqsqScenario0.020.xml")
**.ospfRouter_9_3.app[0].destAddresses = "ospfRouter_5_5"
[Config fail02_test49]
**.scenarioManager.script = xmldoc("./scenarios/test49/sqsqScenario0.020.xml")
**.ospfRouter_9_3.app[0].destAddresses = "ospfRouter_5_5"
[Config fail02_test50]
**.scenarioManager.script = xmldoc("./scenarios/test50/sqsqScenario0.020.xml")
**.ospfRouter_9_3.app[0].destAddresses = "ospfRouter_5_5"

[Config fail03_test1]
**.scenarioManager.script = xmldoc("./scenarios/test1/sqsqScenario0.030.xml")
**.ospfRouter_9_3.app[0].destAddresses = "ospfRouter_5_5"
[Config fail03_test2]
**.scenarioManager.script = xmldoc("./scenarios/test2/sqsqScenario0.030.xml")
**.ospfRouter_9_3.app[0].destAddresses = "ospfRouter_5_5"
[Config fail03_test3]
**.scenarioManager.script = xmldoc("./scenarios/test3/sqsqScenario0.030.xml")
**.ospfRouter_9_3.app[0].destAddresses = "ospfRouter_5_5"
[Config fail03_test4]
**.scenarioManager.script = xmldoc("./scenarios/test4/sqsqScenario0.030.xml")
**.ospfRouter_9_3.app[0].destAddresses = "ospfRouter_5_5"
[Config fail03_test5]
**.scenarioManager.script = xmldoc("./scenarios/test5/sqsqScenario0.030.xml")
**.ospfRouter_9_3.app[0].destAddresses = "ospfRouter_5_5"
[Config fail03_test6]
**.scenarioManager.script = xmldoc("./scenarios/test6/sqsqScenario0.030.xml")
**.ospfRouter_9_3.app[0].destAddresses = "ospfRouter_5_5"
[Config fail03_test7]
**.scenarioManager.script = xmldoc("./scenarios/test7/sqsqScenario0.030.xml")
**.ospfRouter_9_3.app[0].destAddresses = "ospfRouter_5_5"
[Config fail03_test8]
**.scenarioManager.script = xmldoc("./scenarios/test8/sqsqScenario0.030.xml")
**.ospfRouter_9_3.app[0].destAddresses = "ospfRouter_5_5"
[Config fail03_test9]
**.scenarioManager.script = xmldoc("./scenarios/test9/sqsqScenario0.030.xml")
**.ospfRouter_9_3.app[0].destAddresses = "ospfRouter_5_5"
[Config fail03_test10]
**.scenarioManager.script = xmldoc("./scenarios/test10/sqsqScenario0.030.xml")
**.ospfRouter_9_3.app[0].destAddresses = "ospfRouter_5_5"
[Config fail03_test11]
**.scenarioManager.script = xmldoc("./scenarios/test11/sqsqScenario0.030.xml")
**.ospfRouter_9_3.app[0].destAddresses = "ospfRouter_5_5"
[Config fail03_test12]
**.scenarioManager.script = xmldoc("./scenarios/test12/sqsqScenario0.030.xml")
**.ospfRouter_9_3.app[0].destAddresses = "ospfRouter_5_5"
[Config fail03_test13]
**.scenarioManager.script = xmldoc("./scenarios/test13/sqsqScenario0.030.xml")
**.ospfRouter_9_3.app[0].destAddresses = "ospfRouter_5_5"
[Config fail03_test14]
**.scenarioManager.script = xmldoc("./scenarios/test14/sqsqScenario0.030.xml")
**.ospfRouter_9_3.app[0].destAddresses = "ospfRouter_5_5"
[Config fail03_test15]
**.scenarioManager.script = xmldoc("./scenarios/test15/sqsqScenario0.030.xml")
**.ospfRouter_9_3.app[0].destAddresses = "ospfRouter_5_5"
[Config fail03_test16]
**.scenarioManager.script = xmldoc("./scenarios/test16/sqsqScenario0.030.xml")
**.ospfRouter_9_3.app[0].destAddresses = "ospfRouter_5_5"
[Config fail03_test17]
**.scenarioManager.script = xmldoc("./scenarios/test17/sqsqScenario0.030.xml")
**.ospfRouter_9_3.app[0].destAddresses = "ospfRouter_5_5"
[Config fail03_test18]
**.scenarioManager.script = xmldoc("./scenarios/test18/sqsqScenario0.030.xml")
**.ospfRouter_9_3.app[0].destAddresses = "ospfRouter_5_5"
[Config fail03_test19]
**.scenarioManager.script = xmldoc("./scenarios/test19/sqsqScenario0.030.xml")
**.ospfRouter_9_3.app[0].destAddresses = "ospfRouter_5_5"
[Config fail03_test20]
**.scenarioManager.script = xmldoc("./scenarios/test20/sqsqScenario0.030.xml")
**.ospfRouter_9_3.app[0].destAddresses = "ospfRouter_5_5"
[Config fail03_test21]
**.scenarioManager.script = xmldoc("./scenarios/test21/sqsqScenario0.030.xml")
**.ospfRouter_9_3.app[0].destAddresses = "ospfRouter_5_5"
[Config fail03_test22]
**.scenarioManager.script = xmldoc("./scenarios/test22/sqsqScenario0.030.xml")
**.ospfRouter_9_3.app[0].destAddresses = "ospfRouter_5_5"
[Config fail03_test23]
**.scenarioManager.script = xmldoc("./scenarios/test23/sqsqScenario0.030.xml")
**.ospfRouter_9_3.app[0].destAddresses = "ospfRouter_5_5"
[Config fail03_test24]
**.scenarioManager.script = xmldoc("./scenarios/test24/sqsqScenario0.030.xml")
**.ospfRouter_9_3.app[0].destAddresses = "ospfRouter_5_5"
[Config fail03_test25]
**.scenarioManager.script = xmldoc("./scenarios/test25/sqsqScenario0.030.xml")
**.ospfRouter_9_3.app[0].destAddresses = "ospfRouter_5_5"
[Config fail03_test26]
**.scenarioManager.script = xmldoc("./scenarios/test26/sqsqScenario0.030.xml")
**.ospfRouter_9_3.app[0].destAddresses = "ospfRouter_5_5"
[Config fail03_test27]
**.scenarioManager.script = xmldoc("./scenarios/test27/sqsqScenario0.030.xml")
**.ospfRouter_9_3.app[0].destAddresses = "ospfRouter_5_5"
[Config fail03_test28]